
---------- Begin Simulation Statistics ----------
simSeconds                                   0.007789                       # Number of seconds simulated (Second)
simTicks                                   7788850250                       # Number of ticks simulated (Tick)
finalTick                                  7788850250                       # Number of ticks from beginning of simulation (restored from checkpoints and never reset) (Tick)
simFreq                                  1000000000000                       # The number of ticks per simulated second ((Tick/Second))
hostSeconds                                    132.95                       # Real time elapsed on the host (Second)
hostTickRate                                 58585573                       # The number of ticks simulated per host second (ticks/s) ((Tick/Second))
hostMemory                                    8605312                       # Number of bytes of host memory used (Byte)
simInsts                                     47909831                       # Number of instructions simulated (Count)
simOps                                       47979179                       # Number of ops (including micro ops) simulated (Count)
hostInstRate                                   360364                       # Simulator instruction rate (inst/s) ((Count/Second))
hostOpRate                                     360886                       # Simulator op (including micro ops) rate (op/s) ((Count/Second))
board.cache_hierarchy.dptw_caches0.blockedCycles::no_mshrs            0                       # number of cycles access was blocked (Cycle)
board.cache_hierarchy.dptw_caches0.blockedCycles::no_targets            0                       # number of cycles access was blocked (Cycle)
board.cache_hierarchy.dptw_caches0.blockedCauses::no_mshrs            0                       # number of times access was blocked (Count)
board.cache_hierarchy.dptw_caches0.blockedCauses::no_targets            0                       # number of times access was blocked (Count)
board.cache_hierarchy.dptw_caches0.avgBlocked::no_mshrs          nan                       # average number of cycles each access was blocked ((Cycle/Count))
board.cache_hierarchy.dptw_caches0.avgBlocked::no_targets          nan                       # average number of cycles each access was blocked ((Cycle/Count))
board.cache_hierarchy.dptw_caches0.replacements            0                       # number of replacements (Count)
board.cache_hierarchy.dptw_caches0.power_state.pwrStateResidencyTicks::UNDEFINED   7788850250                       # Cumulative time (in ticks) in various power states (Tick)
board.cache_hierarchy.dptw_caches0.tags.tagsInUse            0                       # Average ticks per tags in use ((Tick/Count))
board.cache_hierarchy.dptw_caches0.tags.totalRefs            0                       # Total number of references to valid blocks. (Count)
board.cache_hierarchy.dptw_caches0.tags.sampledRefs            0                       # Sample count of references to valid blocks. (Count)
board.cache_hierarchy.dptw_caches0.tags.avgRefs          nan                       # Average number of references to valid blocks. ((Count/Count))
board.cache_hierarchy.dptw_caches0.tags.warmupTick            0                       # The tick when the warmup percentage was hit. (Tick)
board.cache_hierarchy.dptw_caches0.tags.tagAccesses            0                       # Number of tag accesses (Count)
board.cache_hierarchy.dptw_caches0.tags.dataAccesses            0                       # Number of data accesses (Count)
board.cache_hierarchy.dptw_caches0.tags.power_state.pwrStateResidencyTicks::UNDEFINED   7788850250                       # Cumulative time (in ticks) in various power states (Tick)
board.cache_hierarchy.dptw_caches1.blockedCycles::no_mshrs            0                       # number of cycles access was blocked (Cycle)
board.cache_hierarchy.dptw_caches1.blockedCycles::no_targets            0                       # number of cycles access was blocked (Cycle)
board.cache_hierarchy.dptw_caches1.blockedCauses::no_mshrs            0                       # number of times access was blocked (Count)
board.cache_hierarchy.dptw_caches1.blockedCauses::no_targets            0                       # number of times access was blocked (Count)
board.cache_hierarchy.dptw_caches1.avgBlocked::no_mshrs          nan                       # average number of cycles each access was blocked ((Cycle/Count))
board.cache_hierarchy.dptw_caches1.avgBlocked::no_targets          nan                       # average number of cycles each access was blocked ((Cycle/Count))
board.cache_hierarchy.dptw_caches1.replacements            0                       # number of replacements (Count)
board.cache_hierarchy.dptw_caches1.power_state.pwrStateResidencyTicks::UNDEFINED   7788850250                       # Cumulative time (in ticks) in various power states (Tick)
board.cache_hierarchy.dptw_caches1.tags.tagsInUse            0                       # Average ticks per tags in use ((Tick/Count))
board.cache_hierarchy.dptw_caches1.tags.totalRefs            0                       # Total number of references to valid blocks. (Count)
board.cache_hierarchy.dptw_caches1.tags.sampledRefs            0                       # Sample count of references to valid blocks. (Count)
board.cache_hierarchy.dptw_caches1.tags.avgRefs          nan                       # Average number of references to valid blocks. ((Count/Count))
board.cache_hierarchy.dptw_caches1.tags.warmupTick            0                       # The tick when the warmup percentage was hit. (Tick)
board.cache_hierarchy.dptw_caches1.tags.tagAccesses            0                       # Number of tag accesses (Count)
board.cache_hierarchy.dptw_caches1.tags.dataAccesses            0                       # Number of data accesses (Count)
board.cache_hierarchy.dptw_caches1.tags.power_state.pwrStateResidencyTicks::UNDEFINED   7788850250                       # Cumulative time (in ticks) in various power states (Tick)
board.cache_hierarchy.iptw_caches0.blockedCycles::no_mshrs            0                       # number of cycles access was blocked (Cycle)
board.cache_hierarchy.iptw_caches0.blockedCycles::no_targets            0                       # number of cycles access was blocked (Cycle)
board.cache_hierarchy.iptw_caches0.blockedCauses::no_mshrs            0                       # number of times access was blocked (Count)
board.cache_hierarchy.iptw_caches0.blockedCauses::no_targets            0                       # number of times access was blocked (Count)
board.cache_hierarchy.iptw_caches0.avgBlocked::no_mshrs          nan                       # average number of cycles each access was blocked ((Cycle/Count))
board.cache_hierarchy.iptw_caches0.avgBlocked::no_targets          nan                       # average number of cycles each access was blocked ((Cycle/Count))
board.cache_hierarchy.iptw_caches0.replacements            0                       # number of replacements (Count)
board.cache_hierarchy.iptw_caches0.power_state.pwrStateResidencyTicks::UNDEFINED   7788850250                       # Cumulative time (in ticks) in various power states (Tick)
board.cache_hierarchy.iptw_caches0.tags.tagsInUse            0                       # Average ticks per tags in use ((Tick/Count))
board.cache_hierarchy.iptw_caches0.tags.totalRefs            0                       # Total number of references to valid blocks. (Count)
board.cache_hierarchy.iptw_caches0.tags.sampledRefs            0                       # Sample count of references to valid blocks. (Count)
board.cache_hierarchy.iptw_caches0.tags.avgRefs          nan                       # Average number of references to valid blocks. ((Count/Count))
board.cache_hierarchy.iptw_caches0.tags.warmupTick            0                       # The tick when the warmup percentage was hit. (Tick)
board.cache_hierarchy.iptw_caches0.tags.tagAccesses            0                       # Number of tag accesses (Count)
board.cache_hierarchy.iptw_caches0.tags.dataAccesses            0                       # Number of data accesses (Count)
board.cache_hierarchy.iptw_caches0.tags.power_state.pwrStateResidencyTicks::UNDEFINED   7788850250                       # Cumulative time (in ticks) in various power states (Tick)
board.cache_hierarchy.iptw_caches1.blockedCycles::no_mshrs            0                       # number of cycles access was blocked (Cycle)
board.cache_hierarchy.iptw_caches1.blockedCycles::no_targets            0                       # number of cycles access was blocked (Cycle)
board.cache_hierarchy.iptw_caches1.blockedCauses::no_mshrs            0                       # number of times access was blocked (Count)
board.cache_hierarchy.iptw_caches1.blockedCauses::no_targets            0                       # number of times access was blocked (Count)
board.cache_hierarchy.iptw_caches1.avgBlocked::no_mshrs          nan                       # average number of cycles each access was blocked ((Cycle/Count))
board.cache_hierarchy.iptw_caches1.avgBlocked::no_targets          nan                       # average number of cycles each access was blocked ((Cycle/Count))
board.cache_hierarchy.iptw_caches1.replacements            0                       # number of replacements (Count)
board.cache_hierarchy.iptw_caches1.power_state.pwrStateResidencyTicks::UNDEFINED   7788850250                       # Cumulative time (in ticks) in various power states (Tick)
board.cache_hierarchy.iptw_caches1.tags.tagsInUse            0                       # Average ticks per tags in use ((Tick/Count))
board.cache_hierarchy.iptw_caches1.tags.totalRefs            0                       # Total number of references to valid blocks. (Count)
board.cache_hierarchy.iptw_caches1.tags.sampledRefs            0                       # Sample count of references to valid blocks. (Count)
board.cache_hierarchy.iptw_caches1.tags.avgRefs          nan                       # Average number of references to valid blocks. ((Count/Count))
board.cache_hierarchy.iptw_caches1.tags.warmupTick            0                       # The tick when the warmup percentage was hit. (Tick)
board.cache_hierarchy.iptw_caches1.tags.tagAccesses            0                       # Number of tag accesses (Count)
board.cache_hierarchy.iptw_caches1.tags.dataAccesses            0                       # Number of data accesses (Count)
board.cache_hierarchy.iptw_caches1.tags.power_state.pwrStateResidencyTicks::UNDEFINED   7788850250                       # Cumulative time (in ticks) in various power states (Tick)
board.cache_hierarchy.l1dcaches0.demandHits::processor.cores0.core.data      8278249                       # number of demand (read+write) hits (Count)
board.cache_hierarchy.l1dcaches0.demandHits::total      8278249                       # number of demand (read+write) hits (Count)
board.cache_hierarchy.l1dcaches0.overallHits::processor.cores0.core.data      8278249                       # number of overall hits (Count)
board.cache_hierarchy.l1dcaches0.overallHits::total      8278249                       # number of overall hits (Count)
board.cache_hierarchy.l1dcaches0.demandMisses::processor.cores0.core.data       166533                       # number of demand (read+write) misses (Count)
board.cache_hierarchy.l1dcaches0.demandMisses::total       166533                       # number of demand (read+write) misses (Count)
board.cache_hierarchy.l1dcaches0.overallMisses::processor.cores0.core.data       166533                       # number of overall misses (Count)
board.cache_hierarchy.l1dcaches0.overallMisses::total       166533                       # number of overall misses (Count)
board.cache_hierarchy.l1dcaches0.demandMissLatency::processor.cores0.core.data    865006650                       # number of demand (read+write) miss ticks (Tick)
board.cache_hierarchy.l1dcaches0.demandMissLatency::total    865006650                       # number of demand (read+write) miss ticks (Tick)
board.cache_hierarchy.l1dcaches0.overallMissLatency::processor.cores0.core.data    865006650                       # number of overall miss ticks (Tick)
board.cache_hierarchy.l1dcaches0.overallMissLatency::total    865006650                       # number of overall miss ticks (Tick)
board.cache_hierarchy.l1dcaches0.demandAccesses::processor.cores0.core.data      8444782                       # number of demand (read+write) accesses (Count)
board.cache_hierarchy.l1dcaches0.demandAccesses::total      8444782                       # number of demand (read+write) accesses (Count)
board.cache_hierarchy.l1dcaches0.overallAccesses::processor.cores0.core.data      8444782                       # number of overall (read+write) accesses (Count)
board.cache_hierarchy.l1dcaches0.overallAccesses::total      8444782                       # number of overall (read+write) accesses (Count)
board.cache_hierarchy.l1dcaches0.demandMissRate::processor.cores0.core.data     0.019720                       # miss rate for demand accesses (Ratio)
board.cache_hierarchy.l1dcaches0.demandMissRate::total     0.019720                       # miss rate for demand accesses (Ratio)
board.cache_hierarchy.l1dcaches0.overallMissRate::processor.cores0.core.data     0.019720                       # miss rate for overall accesses (Ratio)
board.cache_hierarchy.l1dcaches0.overallMissRate::total     0.019720                       # miss rate for overall accesses (Ratio)
board.cache_hierarchy.l1dcaches0.demandAvgMissLatency::processor.cores0.core.data  5194.205653                       # average overall miss latency in ticks ((Tick/Count))
board.cache_hierarchy.l1dcaches0.demandAvgMissLatency::total  5194.205653                       # average overall miss latency in ticks ((Tick/Count))
board.cache_hierarchy.l1dcaches0.overallAvgMissLatency::processor.cores0.core.data  5194.205653                       # average overall miss latency ((Tick/Count))
board.cache_hierarchy.l1dcaches0.overallAvgMissLatency::total  5194.205653                       # average overall miss latency ((Tick/Count))
board.cache_hierarchy.l1dcaches0.blockedCycles::no_mshrs            0                       # number of cycles access was blocked (Cycle)
board.cache_hierarchy.l1dcaches0.blockedCycles::no_targets       120320                       # number of cycles access was blocked (Cycle)
board.cache_hierarchy.l1dcaches0.blockedCauses::no_mshrs            0                       # number of times access was blocked (Count)
board.cache_hierarchy.l1dcaches0.blockedCauses::no_targets          285                       # number of times access was blocked (Count)
board.cache_hierarchy.l1dcaches0.avgBlocked::no_mshrs          nan                       # average number of cycles each access was blocked ((Cycle/Count))
board.cache_hierarchy.l1dcaches0.avgBlocked::no_targets   422.175439                       # average number of cycles each access was blocked ((Cycle/Count))
board.cache_hierarchy.l1dcaches0.writebacks::writebacks        38721                       # number of writebacks (Count)
board.cache_hierarchy.l1dcaches0.writebacks::total        38721                       # number of writebacks (Count)
board.cache_hierarchy.l1dcaches0.demandMshrHits::processor.cores0.core.data        95401                       # number of demand (read+write) MSHR hits (Count)
board.cache_hierarchy.l1dcaches0.demandMshrHits::total        95401                       # number of demand (read+write) MSHR hits (Count)
board.cache_hierarchy.l1dcaches0.overallMshrHits::processor.cores0.core.data        95401                       # number of overall MSHR hits (Count)
board.cache_hierarchy.l1dcaches0.overallMshrHits::total        95401                       # number of overall MSHR hits (Count)
board.cache_hierarchy.l1dcaches0.demandMshrMisses::processor.cores0.core.data        71132                       # number of demand (read+write) MSHR misses (Count)
board.cache_hierarchy.l1dcaches0.demandMshrMisses::total        71132                       # number of demand (read+write) MSHR misses (Count)
board.cache_hierarchy.l1dcaches0.overallMshrMisses::cache_hierarchy.l1dcaches0.prefetcher        14470                       # number of overall MSHR misses (Count)
board.cache_hierarchy.l1dcaches0.overallMshrMisses::processor.cores0.core.data        71132                       # number of overall MSHR misses (Count)
board.cache_hierarchy.l1dcaches0.overallMshrMisses::total        85602                       # number of overall MSHR misses (Count)
board.cache_hierarchy.l1dcaches0.demandMshrMissLatency::processor.cores0.core.data    314157750                       # number of demand (read+write) MSHR miss ticks (Tick)
board.cache_hierarchy.l1dcaches0.demandMshrMissLatency::total    314157750                       # number of demand (read+write) MSHR miss ticks (Tick)
board.cache_hierarchy.l1dcaches0.overallMshrMissLatency::cache_hierarchy.l1dcaches0.prefetcher    193483246                       # number of overall MSHR miss ticks (Tick)
board.cache_hierarchy.l1dcaches0.overallMshrMissLatency::processor.cores0.core.data    314157750                       # number of overall MSHR miss ticks (Tick)
board.cache_hierarchy.l1dcaches0.overallMshrMissLatency::total    507640996                       # number of overall MSHR miss ticks (Tick)
board.cache_hierarchy.l1dcaches0.demandMshrMissRate::processor.cores0.core.data     0.008423                       # mshr miss ratio for demand accesses (Ratio)
board.cache_hierarchy.l1dcaches0.demandMshrMissRate::total     0.008423                       # mshr miss ratio for demand accesses (Ratio)
board.cache_hierarchy.l1dcaches0.overallMshrMissRate::cache_hierarchy.l1dcaches0.prefetcher          inf                       # mshr miss ratio for overall accesses (Ratio)
board.cache_hierarchy.l1dcaches0.overallMshrMissRate::processor.cores0.core.data     0.008423                       # mshr miss ratio for overall accesses (Ratio)
board.cache_hierarchy.l1dcaches0.overallMshrMissRate::total     0.010137                       # mshr miss ratio for overall accesses (Ratio)
board.cache_hierarchy.l1dcaches0.demandAvgMshrMissLatency::processor.cores0.core.data  4416.545999                       # average overall mshr miss latency ((Tick/Count))
board.cache_hierarchy.l1dcaches0.demandAvgMshrMissLatency::total  4416.545999                       # average overall mshr miss latency ((Tick/Count))
board.cache_hierarchy.l1dcaches0.overallAvgMshrMissLatency::cache_hierarchy.l1dcaches0.prefetcher 13371.336973                       # average overall mshr miss latency ((Tick/Count))
board.cache_hierarchy.l1dcaches0.overallAvgMshrMissLatency::processor.cores0.core.data  4416.545999                       # average overall mshr miss latency ((Tick/Count))
board.cache_hierarchy.l1dcaches0.overallAvgMshrMissLatency::total  5930.246910                       # average overall mshr miss latency ((Tick/Count))
board.cache_hierarchy.l1dcaches0.replacements        64299                       # number of replacements (Count)
board.cache_hierarchy.l1dcaches0.HardPFReq.mshrMisses::cache_hierarchy.l1dcaches0.prefetcher        14470                       # number of HardPFReq MSHR misses (Count)
board.cache_hierarchy.l1dcaches0.HardPFReq.mshrMisses::total        14470                       # number of HardPFReq MSHR misses (Count)
board.cache_hierarchy.l1dcaches0.HardPFReq.mshrMissLatency::cache_hierarchy.l1dcaches0.prefetcher    193483246                       # number of HardPFReq MSHR miss ticks (Tick)
board.cache_hierarchy.l1dcaches0.HardPFReq.mshrMissLatency::total    193483246                       # number of HardPFReq MSHR miss ticks (Tick)
board.cache_hierarchy.l1dcaches0.HardPFReq.mshrMissRate::cache_hierarchy.l1dcaches0.prefetcher          inf                       # mshr miss rate for HardPFReq accesses (Ratio)
board.cache_hierarchy.l1dcaches0.HardPFReq.mshrMissRate::total          inf                       # mshr miss rate for HardPFReq accesses (Ratio)
board.cache_hierarchy.l1dcaches0.HardPFReq.avgMshrMissLatency::cache_hierarchy.l1dcaches0.prefetcher 13371.336973                       # average HardPFReq mshr miss latency ((Tick/Count))
board.cache_hierarchy.l1dcaches0.HardPFReq.avgMshrMissLatency::total 13371.336973                       # average HardPFReq mshr miss latency ((Tick/Count))
board.cache_hierarchy.l1dcaches0.LoadLockedReq.hits::processor.cores0.core.data         2083                       # number of LoadLockedReq hits (Count)
board.cache_hierarchy.l1dcaches0.LoadLockedReq.hits::total         2083                       # number of LoadLockedReq hits (Count)
board.cache_hierarchy.l1dcaches0.LoadLockedReq.misses::processor.cores0.core.data          546                       # number of LoadLockedReq misses (Count)
board.cache_hierarchy.l1dcaches0.LoadLockedReq.misses::total          546                       # number of LoadLockedReq misses (Count)
board.cache_hierarchy.l1dcaches0.LoadLockedReq.missLatency::processor.cores0.core.data      1730800                       # number of LoadLockedReq miss ticks (Tick)
board.cache_hierarchy.l1dcaches0.LoadLockedReq.missLatency::total      1730800                       # number of LoadLockedReq miss ticks (Tick)
board.cache_hierarchy.l1dcaches0.LoadLockedReq.accesses::processor.cores0.core.data         2629                       # number of LoadLockedReq accesses(hits+misses) (Count)
board.cache_hierarchy.l1dcaches0.LoadLockedReq.accesses::total         2629                       # number of LoadLockedReq accesses(hits+misses) (Count)
board.cache_hierarchy.l1dcaches0.LoadLockedReq.missRate::processor.cores0.core.data     0.207684                       # miss rate for LoadLockedReq accesses (Ratio)
board.cache_hierarchy.l1dcaches0.LoadLockedReq.missRate::total     0.207684                       # miss rate for LoadLockedReq accesses (Ratio)
board.cache_hierarchy.l1dcaches0.LoadLockedReq.avgMissLatency::processor.cores0.core.data  3169.963370                       # average LoadLockedReq miss latency ((Tick/Count))
board.cache_hierarchy.l1dcaches0.LoadLockedReq.avgMissLatency::total  3169.963370                       # average LoadLockedReq miss latency ((Tick/Count))
board.cache_hierarchy.l1dcaches0.LoadLockedReq.mshrHits::processor.cores0.core.data          520                       # number of LoadLockedReq MSHR hits (Count)
board.cache_hierarchy.l1dcaches0.LoadLockedReq.mshrHits::total          520                       # number of LoadLockedReq MSHR hits (Count)
board.cache_hierarchy.l1dcaches0.LoadLockedReq.mshrMisses::processor.cores0.core.data           26                       # number of LoadLockedReq MSHR misses (Count)
board.cache_hierarchy.l1dcaches0.LoadLockedReq.mshrMisses::total           26                       # number of LoadLockedReq MSHR misses (Count)
board.cache_hierarchy.l1dcaches0.LoadLockedReq.mshrMissLatency::processor.cores0.core.data       212750                       # number of LoadLockedReq MSHR miss ticks (Tick)
board.cache_hierarchy.l1dcaches0.LoadLockedReq.mshrMissLatency::total       212750                       # number of LoadLockedReq MSHR miss ticks (Tick)
board.cache_hierarchy.l1dcaches0.LoadLockedReq.mshrMissRate::processor.cores0.core.data     0.009890                       # mshr miss rate for LoadLockedReq accesses (Ratio)
board.cache_hierarchy.l1dcaches0.LoadLockedReq.mshrMissRate::total     0.009890                       # mshr miss rate for LoadLockedReq accesses (Ratio)
board.cache_hierarchy.l1dcaches0.LoadLockedReq.avgMshrMissLatency::processor.cores0.core.data  8182.692308                       # average LoadLockedReq mshr miss latency ((Tick/Count))
board.cache_hierarchy.l1dcaches0.LoadLockedReq.avgMshrMissLatency::total  8182.692308                       # average LoadLockedReq mshr miss latency ((Tick/Count))
board.cache_hierarchy.l1dcaches0.ReadReq.hits::processor.cores0.core.data      6693588                       # number of ReadReq hits (Count)
board.cache_hierarchy.l1dcaches0.ReadReq.hits::total      6693588                       # number of ReadReq hits (Count)
board.cache_hierarchy.l1dcaches0.ReadReq.misses::processor.cores0.core.data        89675                       # number of ReadReq misses (Count)
board.cache_hierarchy.l1dcaches0.ReadReq.misses::total        89675                       # number of ReadReq misses (Count)
board.cache_hierarchy.l1dcaches0.ReadReq.missLatency::processor.cores0.core.data    194844500                       # number of ReadReq miss ticks (Tick)
board.cache_hierarchy.l1dcaches0.ReadReq.missLatency::total    194844500                       # number of ReadReq miss ticks (Tick)
board.cache_hierarchy.l1dcaches0.ReadReq.accesses::processor.cores0.core.data      6783263                       # number of ReadReq accesses(hits+misses) (Count)
board.cache_hierarchy.l1dcaches0.ReadReq.accesses::total      6783263                       # number of ReadReq accesses(hits+misses) (Count)
board.cache_hierarchy.l1dcaches0.ReadReq.missRate::processor.cores0.core.data     0.013220                       # miss rate for ReadReq accesses (Ratio)
board.cache_hierarchy.l1dcaches0.ReadReq.missRate::total     0.013220                       # miss rate for ReadReq accesses (Ratio)
board.cache_hierarchy.l1dcaches0.ReadReq.avgMissLatency::processor.cores0.core.data  2172.785057                       # average ReadReq miss latency ((Tick/Count))
board.cache_hierarchy.l1dcaches0.ReadReq.avgMissLatency::total  2172.785057                       # average ReadReq miss latency ((Tick/Count))
board.cache_hierarchy.l1dcaches0.ReadReq.mshrHits::processor.cores0.core.data        48452                       # number of ReadReq MSHR hits (Count)
board.cache_hierarchy.l1dcaches0.ReadReq.mshrHits::total        48452                       # number of ReadReq MSHR hits (Count)
board.cache_hierarchy.l1dcaches0.ReadReq.mshrMisses::processor.cores0.core.data        41223                       # number of ReadReq MSHR misses (Count)
board.cache_hierarchy.l1dcaches0.ReadReq.mshrMisses::total        41223                       # number of ReadReq MSHR misses (Count)
board.cache_hierarchy.l1dcaches0.ReadReq.mshrMissLatency::processor.cores0.core.data     96338500                       # number of ReadReq MSHR miss ticks (Tick)
board.cache_hierarchy.l1dcaches0.ReadReq.mshrMissLatency::total     96338500                       # number of ReadReq MSHR miss ticks (Tick)
board.cache_hierarchy.l1dcaches0.ReadReq.mshrMissRate::processor.cores0.core.data     0.006077                       # mshr miss rate for ReadReq accesses (Ratio)
board.cache_hierarchy.l1dcaches0.ReadReq.mshrMissRate::total     0.006077                       # mshr miss rate for ReadReq accesses (Ratio)
board.cache_hierarchy.l1dcaches0.ReadReq.avgMshrMissLatency::processor.cores0.core.data  2337.008466                       # average ReadReq mshr miss latency ((Tick/Count))
board.cache_hierarchy.l1dcaches0.ReadReq.avgMshrMissLatency::total  2337.008466                       # average ReadReq mshr miss latency ((Tick/Count))
board.cache_hierarchy.l1dcaches0.StoreCondReq.hits::processor.cores0.core.data         1349                       # number of StoreCondReq hits (Count)
board.cache_hierarchy.l1dcaches0.StoreCondReq.hits::total         1349                       # number of StoreCondReq hits (Count)
board.cache_hierarchy.l1dcaches0.StoreCondReq.misses::processor.cores0.core.data          636                       # number of StoreCondReq misses (Count)
board.cache_hierarchy.l1dcaches0.StoreCondReq.misses::total          636                       # number of StoreCondReq misses (Count)
board.cache_hierarchy.l1dcaches0.StoreCondReq.missLatency::processor.cores0.core.data      2124050                       # number of StoreCondReq miss ticks (Tick)
board.cache_hierarchy.l1dcaches0.StoreCondReq.missLatency::total      2124050                       # number of StoreCondReq miss ticks (Tick)
board.cache_hierarchy.l1dcaches0.StoreCondReq.accesses::processor.cores0.core.data         1985                       # number of StoreCondReq accesses(hits+misses) (Count)
board.cache_hierarchy.l1dcaches0.StoreCondReq.accesses::total         1985                       # number of StoreCondReq accesses(hits+misses) (Count)
board.cache_hierarchy.l1dcaches0.StoreCondReq.missRate::processor.cores0.core.data     0.320403                       # miss rate for StoreCondReq accesses (Ratio)
board.cache_hierarchy.l1dcaches0.StoreCondReq.missRate::total     0.320403                       # miss rate for StoreCondReq accesses (Ratio)
board.cache_hierarchy.l1dcaches0.StoreCondReq.avgMissLatency::processor.cores0.core.data  3339.701258                       # average StoreCondReq miss latency ((Tick/Count))
board.cache_hierarchy.l1dcaches0.StoreCondReq.avgMissLatency::total  3339.701258                       # average StoreCondReq miss latency ((Tick/Count))
board.cache_hierarchy.l1dcaches0.StoreCondReq.mshrMisses::processor.cores0.core.data          636                       # number of StoreCondReq MSHR misses (Count)
board.cache_hierarchy.l1dcaches0.StoreCondReq.mshrMisses::total          636                       # number of StoreCondReq MSHR misses (Count)
board.cache_hierarchy.l1dcaches0.StoreCondReq.mshrMissLatency::processor.cores0.core.data      2092250                       # number of StoreCondReq MSHR miss ticks (Tick)
board.cache_hierarchy.l1dcaches0.StoreCondReq.mshrMissLatency::total      2092250                       # number of StoreCondReq MSHR miss ticks (Tick)
board.cache_hierarchy.l1dcaches0.StoreCondReq.mshrMissRate::processor.cores0.core.data     0.320403                       # mshr miss rate for StoreCondReq accesses (Ratio)
board.cache_hierarchy.l1dcaches0.StoreCondReq.mshrMissRate::total     0.320403                       # mshr miss rate for StoreCondReq accesses (Ratio)
board.cache_hierarchy.l1dcaches0.StoreCondReq.avgMshrMissLatency::processor.cores0.core.data  3289.701258                       # average StoreCondReq mshr miss latency ((Tick/Count))
board.cache_hierarchy.l1dcaches0.StoreCondReq.avgMshrMissLatency::total  3289.701258                       # average StoreCondReq mshr miss latency ((Tick/Count))
board.cache_hierarchy.l1dcaches0.SwapReq.hits::processor.cores0.core.data        17706                       # number of SwapReq hits (Count)
board.cache_hierarchy.l1dcaches0.SwapReq.hits::total        17706                       # number of SwapReq hits (Count)
board.cache_hierarchy.l1dcaches0.SwapReq.misses::processor.cores0.core.data        16847                       # number of SwapReq misses (Count)
board.cache_hierarchy.l1dcaches0.SwapReq.misses::total        16847                       # number of SwapReq misses (Count)
board.cache_hierarchy.l1dcaches0.SwapReq.missLatency::processor.cores0.core.data     55605350                       # number of SwapReq miss ticks (Tick)
board.cache_hierarchy.l1dcaches0.SwapReq.missLatency::total     55605350                       # number of SwapReq miss ticks (Tick)
board.cache_hierarchy.l1dcaches0.SwapReq.accesses::processor.cores0.core.data        34553                       # number of SwapReq accesses(hits+misses) (Count)
board.cache_hierarchy.l1dcaches0.SwapReq.accesses::total        34553                       # number of SwapReq accesses(hits+misses) (Count)
board.cache_hierarchy.l1dcaches0.SwapReq.missRate::processor.cores0.core.data     0.487570                       # miss rate for SwapReq accesses (Ratio)
board.cache_hierarchy.l1dcaches0.SwapReq.missRate::total     0.487570                       # miss rate for SwapReq accesses (Ratio)
board.cache_hierarchy.l1dcaches0.SwapReq.avgMissLatency::processor.cores0.core.data  3300.608417                       # average SwapReq miss latency ((Tick/Count))
board.cache_hierarchy.l1dcaches0.SwapReq.avgMissLatency::total  3300.608417                       # average SwapReq miss latency ((Tick/Count))
board.cache_hierarchy.l1dcaches0.SwapReq.mshrHits::processor.cores0.core.data            3                       # number of SwapReq MSHR hits (Count)
board.cache_hierarchy.l1dcaches0.SwapReq.mshrHits::total            3                       # number of SwapReq MSHR hits (Count)
board.cache_hierarchy.l1dcaches0.SwapReq.mshrMisses::processor.cores0.core.data        16844                       # number of SwapReq MSHR misses (Count)
board.cache_hierarchy.l1dcaches0.SwapReq.mshrMisses::total        16844                       # number of SwapReq MSHR misses (Count)
board.cache_hierarchy.l1dcaches0.SwapReq.mshrMissLatency::processor.cores0.core.data     54763000                       # number of SwapReq MSHR miss ticks (Tick)
board.cache_hierarchy.l1dcaches0.SwapReq.mshrMissLatency::total     54763000                       # number of SwapReq MSHR miss ticks (Tick)
board.cache_hierarchy.l1dcaches0.SwapReq.mshrMissRate::processor.cores0.core.data     0.487483                       # mshr miss rate for SwapReq accesses (Ratio)
board.cache_hierarchy.l1dcaches0.SwapReq.mshrMissRate::total     0.487483                       # mshr miss rate for SwapReq accesses (Ratio)
board.cache_hierarchy.l1dcaches0.SwapReq.avgMshrMissLatency::processor.cores0.core.data  3251.187366                       # average SwapReq mshr miss latency ((Tick/Count))
board.cache_hierarchy.l1dcaches0.SwapReq.avgMshrMissLatency::total  3251.187366                       # average SwapReq mshr miss latency ((Tick/Count))
board.cache_hierarchy.l1dcaches0.WriteReq.hits::processor.cores0.core.data      1584661                       # number of WriteReq hits (Count)
board.cache_hierarchy.l1dcaches0.WriteReq.hits::total      1584661                       # number of WriteReq hits (Count)
board.cache_hierarchy.l1dcaches0.WriteReq.misses::processor.cores0.core.data        76858                       # number of WriteReq misses (Count)
board.cache_hierarchy.l1dcaches0.WriteReq.misses::total        76858                       # number of WriteReq misses (Count)
board.cache_hierarchy.l1dcaches0.WriteReq.missLatency::processor.cores0.core.data    670162150                       # number of WriteReq miss ticks (Tick)
board.cache_hierarchy.l1dcaches0.WriteReq.missLatency::total    670162150                       # number of WriteReq miss ticks (Tick)
board.cache_hierarchy.l1dcaches0.WriteReq.accesses::processor.cores0.core.data      1661519                       # number of WriteReq accesses(hits+misses) (Count)
board.cache_hierarchy.l1dcaches0.WriteReq.accesses::total      1661519                       # number of WriteReq accesses(hits+misses) (Count)
board.cache_hierarchy.l1dcaches0.WriteReq.missRate::processor.cores0.core.data     0.046258                       # miss rate for WriteReq accesses (Ratio)
board.cache_hierarchy.l1dcaches0.WriteReq.missRate::total     0.046258                       # miss rate for WriteReq accesses (Ratio)
board.cache_hierarchy.l1dcaches0.WriteReq.avgMissLatency::processor.cores0.core.data  8719.484634                       # average WriteReq miss latency ((Tick/Count))
board.cache_hierarchy.l1dcaches0.WriteReq.avgMissLatency::total  8719.484634                       # average WriteReq miss latency ((Tick/Count))
board.cache_hierarchy.l1dcaches0.WriteReq.mshrHits::processor.cores0.core.data        46949                       # number of WriteReq MSHR hits (Count)
board.cache_hierarchy.l1dcaches0.WriteReq.mshrHits::total        46949                       # number of WriteReq MSHR hits (Count)
board.cache_hierarchy.l1dcaches0.WriteReq.mshrMisses::processor.cores0.core.data        29909                       # number of WriteReq MSHR misses (Count)
board.cache_hierarchy.l1dcaches0.WriteReq.mshrMisses::total        29909                       # number of WriteReq MSHR misses (Count)
board.cache_hierarchy.l1dcaches0.WriteReq.mshrMissLatency::processor.cores0.core.data    217819250                       # number of WriteReq MSHR miss ticks (Tick)
board.cache_hierarchy.l1dcaches0.WriteReq.mshrMissLatency::total    217819250                       # number of WriteReq MSHR miss ticks (Tick)
board.cache_hierarchy.l1dcaches0.WriteReq.mshrMissRate::processor.cores0.core.data     0.018001                       # mshr miss rate for WriteReq accesses (Ratio)
board.cache_hierarchy.l1dcaches0.WriteReq.mshrMissRate::total     0.018001                       # mshr miss rate for WriteReq accesses (Ratio)
board.cache_hierarchy.l1dcaches0.WriteReq.avgMshrMissLatency::processor.cores0.core.data  7282.732622                       # average WriteReq mshr miss latency ((Tick/Count))
board.cache_hierarchy.l1dcaches0.WriteReq.avgMshrMissLatency::total  7282.732622                       # average WriteReq mshr miss latency ((Tick/Count))
board.cache_hierarchy.l1dcaches0.clk_domain.clock           50                       # Clock period in ticks (Tick)
board.cache_hierarchy.l1dcaches0.clk_domain.voltage_domain.voltage            1                       # Voltage in Volts (Volt)
board.cache_hierarchy.l1dcaches0.power_state.pwrStateResidencyTicks::UNDEFINED   7788850250                       # Cumulative time (in ticks) in various power states (Tick)
board.cache_hierarchy.l1dcaches0.prefetcher.demandMshrMisses        71132                       # demands not covered by prefetchs (Count)
board.cache_hierarchy.l1dcaches0.prefetcher.pfIssued       139873                       # number of hwpf issued (Count)
board.cache_hierarchy.l1dcaches0.prefetcher.pfUnused         2677                       # number of HardPF blocks evicted w/o reference (Count)
board.cache_hierarchy.l1dcaches0.prefetcher.pfUseful        33850                       # number of useful prefetch (Count)
board.cache_hierarchy.l1dcaches0.prefetcher.pfUsefulButMiss        22981                       # number of hit on prefetch but cache block is not in an usable state (Count)
board.cache_hierarchy.l1dcaches0.prefetcher.accuracy     0.242005                       # accuracy of the prefetcher (Count)
board.cache_hierarchy.l1dcaches0.prefetcher.coverage     0.322436                       # coverage brought by this prefetcher (Count)
board.cache_hierarchy.l1dcaches0.prefetcher.pfHitInCache        87210                       # number of prefetches hitting in cache (Count)
board.cache_hierarchy.l1dcaches0.prefetcher.pfHitInMSHR        38193                       # number of prefetches hitting in a MSHR (Count)
board.cache_hierarchy.l1dcaches0.prefetcher.pfHitInWB            0                       # number of prefetches hit in the Write Buffer (Count)
board.cache_hierarchy.l1dcaches0.prefetcher.pfLate       125403                       # number of late prefetches (hitting in cache, MSHR or WB) (Count)
board.cache_hierarchy.l1dcaches0.prefetcher.pfIdentified       154847                       # number of prefetch candidates identified (Count)
board.cache_hierarchy.l1dcaches0.prefetcher.pfBufferHit        11829                       # number of redundant prefetches already in prefetch queue (Count)
board.cache_hierarchy.l1dcaches0.prefetcher.pfInCache            0                       # number of redundant prefetches already in cache/mshr dropped (Count)
board.cache_hierarchy.l1dcaches0.prefetcher.pfRemovedDemand          127                       # number of prefetches dropped due to a demand for the same address (Count)
board.cache_hierarchy.l1dcaches0.prefetcher.pfRemovedFull            0                       # number of prefetches dropped due to prefetch queue size (Count)
board.cache_hierarchy.l1dcaches0.prefetcher.pfSpanPage        10261                       # number of prefetches that crossed the page (Count)
board.cache_hierarchy.l1dcaches0.prefetcher.pfUsefulSpanPage         4367                       # number of prefetches that is useful and crossed the page (Count)
board.cache_hierarchy.l1dcaches0.prefetcher.power_state.pwrStateResidencyTicks::UNDEFINED   7788850250                       # Cumulative time (in ticks) in various power states (Tick)
board.cache_hierarchy.l1dcaches0.tags.tagsInUse   506.713942                       # Average ticks per tags in use ((Tick/Count))
board.cache_hierarchy.l1dcaches0.tags.totalRefs      8429776                       # Total number of references to valid blocks. (Count)
board.cache_hierarchy.l1dcaches0.tags.sampledRefs        95308                       # Sample count of references to valid blocks. (Count)
board.cache_hierarchy.l1dcaches0.tags.avgRefs    88.447727                       # Average number of references to valid blocks. ((Count/Count))
board.cache_hierarchy.l1dcaches0.tags.warmupTick       175000                       # The tick when the warmup percentage was hit. (Tick)
board.cache_hierarchy.l1dcaches0.tags.occupancies::cache_hierarchy.l1dcaches0.prefetcher   106.226273                       # Average occupied blocks per tick, per requestor ((Count/Tick))
board.cache_hierarchy.l1dcaches0.tags.occupancies::processor.cores0.core.data   400.487668                       # Average occupied blocks per tick, per requestor ((Count/Tick))
board.cache_hierarchy.l1dcaches0.tags.avgOccs::cache_hierarchy.l1dcaches0.prefetcher     0.207473                       # Average percentage of cache occupancy ((Ratio/Tick))
board.cache_hierarchy.l1dcaches0.tags.avgOccs::processor.cores0.core.data     0.782202                       # Average percentage of cache occupancy ((Ratio/Tick))
board.cache_hierarchy.l1dcaches0.tags.avgOccs::total     0.989676                       # Average percentage of cache occupancy ((Ratio/Tick))
board.cache_hierarchy.l1dcaches0.tags.occupanciesTaskId::1022           34                       # Occupied blocks per task id (Count)
board.cache_hierarchy.l1dcaches0.tags.occupanciesTaskId::1024          478                       # Occupied blocks per task id (Count)
board.cache_hierarchy.l1dcaches0.tags.ageTaskId_1022::0           23                       # Occupied blocks per task id, per block age (Count)
board.cache_hierarchy.l1dcaches0.tags.ageTaskId_1022::1            8                       # Occupied blocks per task id, per block age (Count)
board.cache_hierarchy.l1dcaches0.tags.ageTaskId_1022::2            3                       # Occupied blocks per task id, per block age (Count)
board.cache_hierarchy.l1dcaches0.tags.ageTaskId_1024::0          302                       # Occupied blocks per task id, per block age (Count)
board.cache_hierarchy.l1dcaches0.tags.ageTaskId_1024::1          123                       # Occupied blocks per task id, per block age (Count)
board.cache_hierarchy.l1dcaches0.tags.ageTaskId_1024::2           53                       # Occupied blocks per task id, per block age (Count)
board.cache_hierarchy.l1dcaches0.tags.ratioOccsTaskId::1022     0.066406                       # Ratio of occupied blocks and all blocks, per task id (Ratio)
board.cache_hierarchy.l1dcaches0.tags.ratioOccsTaskId::1024     0.933594                       # Ratio of occupied blocks and all blocks, per task id (Ratio)
board.cache_hierarchy.l1dcaches0.tags.tagAccesses     67966900                       # Number of tag accesses (Count)
board.cache_hierarchy.l1dcaches0.tags.dataAccesses     67966900                       # Number of data accesses (Count)
board.cache_hierarchy.l1dcaches0.tags.power_state.pwrStateResidencyTicks::UNDEFINED   7788850250                       # Cumulative time (in ticks) in various power states (Tick)
board.cache_hierarchy.l1dcaches1.demandHits::processor.cores1.core.data      6827831                       # number of demand (read+write) hits (Count)
board.cache_hierarchy.l1dcaches1.demandHits::total      6827831                       # number of demand (read+write) hits (Count)
board.cache_hierarchy.l1dcaches1.overallHits::processor.cores1.core.data      6827831                       # number of overall hits (Count)
board.cache_hierarchy.l1dcaches1.overallHits::total      6827831                       # number of overall hits (Count)
board.cache_hierarchy.l1dcaches1.demandMisses::processor.cores1.core.data       143816                       # number of demand (read+write) misses (Count)
board.cache_hierarchy.l1dcaches1.demandMisses::total       143816                       # number of demand (read+write) misses (Count)
board.cache_hierarchy.l1dcaches1.overallMisses::processor.cores1.core.data       143816                       # number of overall misses (Count)
board.cache_hierarchy.l1dcaches1.overallMisses::total       143816                       # number of overall misses (Count)
board.cache_hierarchy.l1dcaches1.demandMissLatency::processor.cores1.core.data    624530549                       # number of demand (read+write) miss ticks (Tick)
board.cache_hierarchy.l1dcaches1.demandMissLatency::total    624530549                       # number of demand (read+write) miss ticks (Tick)
board.cache_hierarchy.l1dcaches1.overallMissLatency::processor.cores1.core.data    624530549                       # number of overall miss ticks (Tick)
board.cache_hierarchy.l1dcaches1.overallMissLatency::total    624530549                       # number of overall miss ticks (Tick)
board.cache_hierarchy.l1dcaches1.demandAccesses::processor.cores1.core.data      6971647                       # number of demand (read+write) accesses (Count)
board.cache_hierarchy.l1dcaches1.demandAccesses::total      6971647                       # number of demand (read+write) accesses (Count)
board.cache_hierarchy.l1dcaches1.overallAccesses::processor.cores1.core.data      6971647                       # number of overall (read+write) accesses (Count)
board.cache_hierarchy.l1dcaches1.overallAccesses::total      6971647                       # number of overall (read+write) accesses (Count)
board.cache_hierarchy.l1dcaches1.demandMissRate::processor.cores1.core.data     0.020629                       # miss rate for demand accesses (Ratio)
board.cache_hierarchy.l1dcaches1.demandMissRate::total     0.020629                       # miss rate for demand accesses (Ratio)
board.cache_hierarchy.l1dcaches1.overallMissRate::processor.cores1.core.data     0.020629                       # miss rate for overall accesses (Ratio)
board.cache_hierarchy.l1dcaches1.overallMissRate::total     0.020629                       # miss rate for overall accesses (Ratio)
board.cache_hierarchy.l1dcaches1.demandAvgMissLatency::processor.cores1.core.data  4342.566536                       # average overall miss latency in ticks ((Tick/Count))
board.cache_hierarchy.l1dcaches1.demandAvgMissLatency::total  4342.566536                       # average overall miss latency in ticks ((Tick/Count))
board.cache_hierarchy.l1dcaches1.overallAvgMissLatency::processor.cores1.core.data  4342.566536                       # average overall miss latency ((Tick/Count))
board.cache_hierarchy.l1dcaches1.overallAvgMissLatency::total  4342.566536                       # average overall miss latency ((Tick/Count))
board.cache_hierarchy.l1dcaches1.blockedCycles::no_mshrs            0                       # number of cycles access was blocked (Cycle)
board.cache_hierarchy.l1dcaches1.blockedCycles::no_targets        96115                       # number of cycles access was blocked (Cycle)
board.cache_hierarchy.l1dcaches1.blockedCauses::no_mshrs            0                       # number of times access was blocked (Count)
board.cache_hierarchy.l1dcaches1.blockedCauses::no_targets          180                       # number of times access was blocked (Count)
board.cache_hierarchy.l1dcaches1.avgBlocked::no_mshrs          nan                       # average number of cycles each access was blocked ((Cycle/Count))
board.cache_hierarchy.l1dcaches1.avgBlocked::no_targets   533.972222                       # average number of cycles each access was blocked ((Cycle/Count))
board.cache_hierarchy.l1dcaches1.writebacks::writebacks        32031                       # number of writebacks (Count)
board.cache_hierarchy.l1dcaches1.writebacks::total        32031                       # number of writebacks (Count)
board.cache_hierarchy.l1dcaches1.demandMshrHits::processor.cores1.core.data        80065                       # number of demand (read+write) MSHR hits (Count)
board.cache_hierarchy.l1dcaches1.demandMshrHits::total        80065                       # number of demand (read+write) MSHR hits (Count)
board.cache_hierarchy.l1dcaches1.overallMshrHits::processor.cores1.core.data        80065                       # number of overall MSHR hits (Count)
board.cache_hierarchy.l1dcaches1.overallMshrHits::total        80065                       # number of overall MSHR hits (Count)
board.cache_hierarchy.l1dcaches1.demandMshrMisses::processor.cores1.core.data        63751                       # number of demand (read+write) MSHR misses (Count)
board.cache_hierarchy.l1dcaches1.demandMshrMisses::total        63751                       # number of demand (read+write) MSHR misses (Count)
board.cache_hierarchy.l1dcaches1.overallMshrMisses::cache_hierarchy.l1dcaches1.prefetcher        11703                       # number of overall MSHR misses (Count)
board.cache_hierarchy.l1dcaches1.overallMshrMisses::processor.cores1.core.data        63751                       # number of overall MSHR misses (Count)
board.cache_hierarchy.l1dcaches1.overallMshrMisses::total        75454                       # number of overall MSHR misses (Count)
board.cache_hierarchy.l1dcaches1.demandMshrMissLatency::processor.cores1.core.data    230137750                       # number of demand (read+write) MSHR miss ticks (Tick)
board.cache_hierarchy.l1dcaches1.demandMshrMissLatency::total    230137750                       # number of demand (read+write) MSHR miss ticks (Tick)
board.cache_hierarchy.l1dcaches1.overallMshrMissLatency::cache_hierarchy.l1dcaches1.prefetcher    122712684                       # number of overall MSHR miss ticks (Tick)
board.cache_hierarchy.l1dcaches1.overallMshrMissLatency::processor.cores1.core.data    230137750                       # number of overall MSHR miss ticks (Tick)
board.cache_hierarchy.l1dcaches1.overallMshrMissLatency::total    352850434                       # number of overall MSHR miss ticks (Tick)
board.cache_hierarchy.l1dcaches1.demandMshrMissRate::processor.cores1.core.data     0.009144                       # mshr miss ratio for demand accesses (Ratio)
board.cache_hierarchy.l1dcaches1.demandMshrMissRate::total     0.009144                       # mshr miss ratio for demand accesses (Ratio)
board.cache_hierarchy.l1dcaches1.overallMshrMissRate::cache_hierarchy.l1dcaches1.prefetcher          inf                       # mshr miss ratio for overall accesses (Ratio)
board.cache_hierarchy.l1dcaches1.overallMshrMissRate::processor.cores1.core.data     0.009144                       # mshr miss ratio for overall accesses (Ratio)
board.cache_hierarchy.l1dcaches1.overallMshrMissRate::total     0.010823                       # mshr miss ratio for overall accesses (Ratio)
board.cache_hierarchy.l1dcaches1.demandAvgMshrMissLatency::processor.cores1.core.data  3609.947295                       # average overall mshr miss latency ((Tick/Count))
board.cache_hierarchy.l1dcaches1.demandAvgMshrMissLatency::total  3609.947295                       # average overall mshr miss latency ((Tick/Count))
board.cache_hierarchy.l1dcaches1.overallAvgMshrMissLatency::cache_hierarchy.l1dcaches1.prefetcher 10485.574981                       # average overall mshr miss latency ((Tick/Count))
board.cache_hierarchy.l1dcaches1.overallAvgMshrMissLatency::processor.cores1.core.data  3609.947295                       # average overall mshr miss latency ((Tick/Count))
board.cache_hierarchy.l1dcaches1.overallAvgMshrMissLatency::total  4676.364858                       # average overall mshr miss latency ((Tick/Count))
board.cache_hierarchy.l1dcaches1.replacements        54447                       # number of replacements (Count)
board.cache_hierarchy.l1dcaches1.HardPFReq.mshrMisses::cache_hierarchy.l1dcaches1.prefetcher        11703                       # number of HardPFReq MSHR misses (Count)
board.cache_hierarchy.l1dcaches1.HardPFReq.mshrMisses::total        11703                       # number of HardPFReq MSHR misses (Count)
board.cache_hierarchy.l1dcaches1.HardPFReq.mshrMissLatency::cache_hierarchy.l1dcaches1.prefetcher    122712684                       # number of HardPFReq MSHR miss ticks (Tick)
board.cache_hierarchy.l1dcaches1.HardPFReq.mshrMissLatency::total    122712684                       # number of HardPFReq MSHR miss ticks (Tick)
board.cache_hierarchy.l1dcaches1.HardPFReq.mshrMissRate::cache_hierarchy.l1dcaches1.prefetcher          inf                       # mshr miss rate for HardPFReq accesses (Ratio)
board.cache_hierarchy.l1dcaches1.HardPFReq.mshrMissRate::total          inf                       # mshr miss rate for HardPFReq accesses (Ratio)
board.cache_hierarchy.l1dcaches1.HardPFReq.avgMshrMissLatency::cache_hierarchy.l1dcaches1.prefetcher 10485.574981                       # average HardPFReq mshr miss latency ((Tick/Count))
board.cache_hierarchy.l1dcaches1.HardPFReq.avgMshrMissLatency::total 10485.574981                       # average HardPFReq mshr miss latency ((Tick/Count))
board.cache_hierarchy.l1dcaches1.LoadLockedReq.hits::processor.cores1.core.data         1678                       # number of LoadLockedReq hits (Count)
board.cache_hierarchy.l1dcaches1.LoadLockedReq.hits::total         1678                       # number of LoadLockedReq hits (Count)
board.cache_hierarchy.l1dcaches1.LoadLockedReq.misses::processor.cores1.core.data          742                       # number of LoadLockedReq misses (Count)
board.cache_hierarchy.l1dcaches1.LoadLockedReq.misses::total          742                       # number of LoadLockedReq misses (Count)
board.cache_hierarchy.l1dcaches1.LoadLockedReq.missLatency::processor.cores1.core.data      2219350                       # number of LoadLockedReq miss ticks (Tick)
board.cache_hierarchy.l1dcaches1.LoadLockedReq.missLatency::total      2219350                       # number of LoadLockedReq miss ticks (Tick)
board.cache_hierarchy.l1dcaches1.LoadLockedReq.accesses::processor.cores1.core.data         2420                       # number of LoadLockedReq accesses(hits+misses) (Count)
board.cache_hierarchy.l1dcaches1.LoadLockedReq.accesses::total         2420                       # number of LoadLockedReq accesses(hits+misses) (Count)
board.cache_hierarchy.l1dcaches1.LoadLockedReq.missRate::processor.cores1.core.data     0.306612                       # miss rate for LoadLockedReq accesses (Ratio)
board.cache_hierarchy.l1dcaches1.LoadLockedReq.missRate::total     0.306612                       # miss rate for LoadLockedReq accesses (Ratio)
board.cache_hierarchy.l1dcaches1.LoadLockedReq.avgMissLatency::processor.cores1.core.data  2991.037736                       # average LoadLockedReq miss latency ((Tick/Count))
board.cache_hierarchy.l1dcaches1.LoadLockedReq.avgMissLatency::total  2991.037736                       # average LoadLockedReq miss latency ((Tick/Count))
board.cache_hierarchy.l1dcaches1.LoadLockedReq.mshrHits::processor.cores1.core.data          592                       # number of LoadLockedReq MSHR hits (Count)
board.cache_hierarchy.l1dcaches1.LoadLockedReq.mshrHits::total          592                       # number of LoadLockedReq MSHR hits (Count)
board.cache_hierarchy.l1dcaches1.LoadLockedReq.mshrMisses::processor.cores1.core.data          150                       # number of LoadLockedReq MSHR misses (Count)
board.cache_hierarchy.l1dcaches1.LoadLockedReq.mshrMisses::total          150                       # number of LoadLockedReq MSHR misses (Count)
board.cache_hierarchy.l1dcaches1.LoadLockedReq.mshrMissLatency::processor.cores1.core.data       472250                       # number of LoadLockedReq MSHR miss ticks (Tick)
board.cache_hierarchy.l1dcaches1.LoadLockedReq.mshrMissLatency::total       472250                       # number of LoadLockedReq MSHR miss ticks (Tick)
board.cache_hierarchy.l1dcaches1.LoadLockedReq.mshrMissRate::processor.cores1.core.data     0.061983                       # mshr miss rate for LoadLockedReq accesses (Ratio)
board.cache_hierarchy.l1dcaches1.LoadLockedReq.mshrMissRate::total     0.061983                       # mshr miss rate for LoadLockedReq accesses (Ratio)
board.cache_hierarchy.l1dcaches1.LoadLockedReq.avgMshrMissLatency::processor.cores1.core.data  3148.333333                       # average LoadLockedReq mshr miss latency ((Tick/Count))
board.cache_hierarchy.l1dcaches1.LoadLockedReq.avgMshrMissLatency::total  3148.333333                       # average LoadLockedReq mshr miss latency ((Tick/Count))
board.cache_hierarchy.l1dcaches1.ReadReq.hits::processor.cores1.core.data      5658002                       # number of ReadReq hits (Count)
board.cache_hierarchy.l1dcaches1.ReadReq.hits::total      5658002                       # number of ReadReq hits (Count)
board.cache_hierarchy.l1dcaches1.ReadReq.misses::processor.cores1.core.data        80544                       # number of ReadReq misses (Count)
board.cache_hierarchy.l1dcaches1.ReadReq.misses::total        80544                       # number of ReadReq misses (Count)
board.cache_hierarchy.l1dcaches1.ReadReq.missLatency::processor.cores1.core.data    144391950                       # number of ReadReq miss ticks (Tick)
board.cache_hierarchy.l1dcaches1.ReadReq.missLatency::total    144391950                       # number of ReadReq miss ticks (Tick)
board.cache_hierarchy.l1dcaches1.ReadReq.accesses::processor.cores1.core.data      5738546                       # number of ReadReq accesses(hits+misses) (Count)
board.cache_hierarchy.l1dcaches1.ReadReq.accesses::total      5738546                       # number of ReadReq accesses(hits+misses) (Count)
board.cache_hierarchy.l1dcaches1.ReadReq.missRate::processor.cores1.core.data     0.014036                       # miss rate for ReadReq accesses (Ratio)
board.cache_hierarchy.l1dcaches1.ReadReq.missRate::total     0.014036                       # miss rate for ReadReq accesses (Ratio)
board.cache_hierarchy.l1dcaches1.ReadReq.avgMissLatency::processor.cores1.core.data  1792.708954                       # average ReadReq miss latency ((Tick/Count))
board.cache_hierarchy.l1dcaches1.ReadReq.avgMissLatency::total  1792.708954                       # average ReadReq miss latency ((Tick/Count))
board.cache_hierarchy.l1dcaches1.ReadReq.mshrHits::processor.cores1.core.data        43566                       # number of ReadReq MSHR hits (Count)
board.cache_hierarchy.l1dcaches1.ReadReq.mshrHits::total        43566                       # number of ReadReq MSHR hits (Count)
board.cache_hierarchy.l1dcaches1.ReadReq.mshrMisses::processor.cores1.core.data        36978                       # number of ReadReq MSHR misses (Count)
board.cache_hierarchy.l1dcaches1.ReadReq.mshrMisses::total        36978                       # number of ReadReq MSHR misses (Count)
board.cache_hierarchy.l1dcaches1.ReadReq.mshrMissLatency::processor.cores1.core.data     73160500                       # number of ReadReq MSHR miss ticks (Tick)
board.cache_hierarchy.l1dcaches1.ReadReq.mshrMissLatency::total     73160500                       # number of ReadReq MSHR miss ticks (Tick)
board.cache_hierarchy.l1dcaches1.ReadReq.mshrMissRate::processor.cores1.core.data     0.006444                       # mshr miss rate for ReadReq accesses (Ratio)
board.cache_hierarchy.l1dcaches1.ReadReq.mshrMissRate::total     0.006444                       # mshr miss rate for ReadReq accesses (Ratio)
board.cache_hierarchy.l1dcaches1.ReadReq.avgMshrMissLatency::processor.cores1.core.data  1978.487209                       # average ReadReq mshr miss latency ((Tick/Count))
board.cache_hierarchy.l1dcaches1.ReadReq.avgMshrMissLatency::total  1978.487209                       # average ReadReq mshr miss latency ((Tick/Count))
board.cache_hierarchy.l1dcaches1.StoreCondFailReq.missLatency::processor.cores1.core.data         4050                       # number of StoreCondFailReq miss ticks (Tick)
board.cache_hierarchy.l1dcaches1.StoreCondFailReq.missLatency::total         4050                       # number of StoreCondFailReq miss ticks (Tick)
board.cache_hierarchy.l1dcaches1.StoreCondFailReq.avgMissLatency::processor.cores1.core.data          inf                       # average StoreCondFailReq miss latency ((Tick/Count))
board.cache_hierarchy.l1dcaches1.StoreCondFailReq.avgMissLatency::total          inf                       # average StoreCondFailReq miss latency ((Tick/Count))
board.cache_hierarchy.l1dcaches1.StoreCondFailReq.mshrMissLatency::processor.cores1.core.data         4000                       # number of StoreCondFailReq MSHR miss ticks (Tick)
board.cache_hierarchy.l1dcaches1.StoreCondFailReq.mshrMissLatency::total         4000                       # number of StoreCondFailReq MSHR miss ticks (Tick)
board.cache_hierarchy.l1dcaches1.StoreCondFailReq.avgMshrMissLatency::processor.cores1.core.data          inf                       # average StoreCondFailReq mshr miss latency ((Tick/Count))
board.cache_hierarchy.l1dcaches1.StoreCondFailReq.avgMshrMissLatency::total          inf                       # average StoreCondFailReq mshr miss latency ((Tick/Count))
board.cache_hierarchy.l1dcaches1.StoreCondReq.hits::processor.cores1.core.data          962                       # number of StoreCondReq hits (Count)
board.cache_hierarchy.l1dcaches1.StoreCondReq.hits::total          962                       # number of StoreCondReq hits (Count)
board.cache_hierarchy.l1dcaches1.StoreCondReq.misses::processor.cores1.core.data          727                       # number of StoreCondReq misses (Count)
board.cache_hierarchy.l1dcaches1.StoreCondReq.misses::total          727                       # number of StoreCondReq misses (Count)
board.cache_hierarchy.l1dcaches1.StoreCondReq.missLatency::processor.cores1.core.data      2393550                       # number of StoreCondReq miss ticks (Tick)
board.cache_hierarchy.l1dcaches1.StoreCondReq.missLatency::total      2393550                       # number of StoreCondReq miss ticks (Tick)
board.cache_hierarchy.l1dcaches1.StoreCondReq.accesses::processor.cores1.core.data         1689                       # number of StoreCondReq accesses(hits+misses) (Count)
board.cache_hierarchy.l1dcaches1.StoreCondReq.accesses::total         1689                       # number of StoreCondReq accesses(hits+misses) (Count)
board.cache_hierarchy.l1dcaches1.StoreCondReq.missRate::processor.cores1.core.data     0.430432                       # miss rate for StoreCondReq accesses (Ratio)
board.cache_hierarchy.l1dcaches1.StoreCondReq.missRate::total     0.430432                       # miss rate for StoreCondReq accesses (Ratio)
board.cache_hierarchy.l1dcaches1.StoreCondReq.avgMissLatency::processor.cores1.core.data  3292.365887                       # average StoreCondReq miss latency ((Tick/Count))
board.cache_hierarchy.l1dcaches1.StoreCondReq.avgMissLatency::total  3292.365887                       # average StoreCondReq miss latency ((Tick/Count))
board.cache_hierarchy.l1dcaches1.StoreCondReq.mshrMisses::processor.cores1.core.data          727                       # number of StoreCondReq MSHR misses (Count)
board.cache_hierarchy.l1dcaches1.StoreCondReq.mshrMisses::total          727                       # number of StoreCondReq MSHR misses (Count)
board.cache_hierarchy.l1dcaches1.StoreCondReq.mshrMissLatency::processor.cores1.core.data      2357250                       # number of StoreCondReq MSHR miss ticks (Tick)
board.cache_hierarchy.l1dcaches1.StoreCondReq.mshrMissLatency::total      2357250                       # number of StoreCondReq MSHR miss ticks (Tick)
board.cache_hierarchy.l1dcaches1.StoreCondReq.mshrMissRate::processor.cores1.core.data     0.430432                       # mshr miss rate for StoreCondReq accesses (Ratio)
board.cache_hierarchy.l1dcaches1.StoreCondReq.mshrMissRate::total     0.430432                       # mshr miss rate for StoreCondReq accesses (Ratio)
board.cache_hierarchy.l1dcaches1.StoreCondReq.avgMshrMissLatency::processor.cores1.core.data  3242.434663                       # average StoreCondReq mshr miss latency ((Tick/Count))
board.cache_hierarchy.l1dcaches1.StoreCondReq.avgMshrMissLatency::total  3242.434663                       # average StoreCondReq mshr miss latency ((Tick/Count))
board.cache_hierarchy.l1dcaches1.SwapReq.hits::processor.cores1.core.data        17131                       # number of SwapReq hits (Count)
board.cache_hierarchy.l1dcaches1.SwapReq.hits::total        17131                       # number of SwapReq hits (Count)
board.cache_hierarchy.l1dcaches1.SwapReq.misses::processor.cores1.core.data        16924                       # number of SwapReq misses (Count)
board.cache_hierarchy.l1dcaches1.SwapReq.misses::total        16924                       # number of SwapReq misses (Count)
board.cache_hierarchy.l1dcaches1.SwapReq.missLatency::processor.cores1.core.data     55831200                       # number of SwapReq miss ticks (Tick)
board.cache_hierarchy.l1dcaches1.SwapReq.missLatency::total     55831200                       # number of SwapReq miss ticks (Tick)
board.cache_hierarchy.l1dcaches1.SwapReq.accesses::processor.cores1.core.data        34055                       # number of SwapReq accesses(hits+misses) (Count)
board.cache_hierarchy.l1dcaches1.SwapReq.accesses::total        34055                       # number of SwapReq accesses(hits+misses) (Count)
board.cache_hierarchy.l1dcaches1.SwapReq.missRate::processor.cores1.core.data     0.496961                       # miss rate for SwapReq accesses (Ratio)
board.cache_hierarchy.l1dcaches1.SwapReq.missRate::total     0.496961                       # miss rate for SwapReq accesses (Ratio)
board.cache_hierarchy.l1dcaches1.SwapReq.avgMissLatency::processor.cores1.core.data  3298.936422                       # average SwapReq miss latency ((Tick/Count))
board.cache_hierarchy.l1dcaches1.SwapReq.avgMissLatency::total  3298.936422                       # average SwapReq miss latency ((Tick/Count))
board.cache_hierarchy.l1dcaches1.SwapReq.mshrHits::processor.cores1.core.data            9                       # number of SwapReq MSHR hits (Count)
board.cache_hierarchy.l1dcaches1.SwapReq.mshrHits::total            9                       # number of SwapReq MSHR hits (Count)
board.cache_hierarchy.l1dcaches1.SwapReq.mshrMisses::processor.cores1.core.data        16915                       # number of SwapReq MSHR misses (Count)
board.cache_hierarchy.l1dcaches1.SwapReq.mshrMisses::total        16915                       # number of SwapReq MSHR misses (Count)
board.cache_hierarchy.l1dcaches1.SwapReq.mshrMissLatency::processor.cores1.core.data     54980500                       # number of SwapReq MSHR miss ticks (Tick)
board.cache_hierarchy.l1dcaches1.SwapReq.mshrMissLatency::total     54980500                       # number of SwapReq MSHR miss ticks (Tick)
board.cache_hierarchy.l1dcaches1.SwapReq.mshrMissRate::processor.cores1.core.data     0.496697                       # mshr miss rate for SwapReq accesses (Ratio)
board.cache_hierarchy.l1dcaches1.SwapReq.mshrMissRate::total     0.496697                       # mshr miss rate for SwapReq accesses (Ratio)
board.cache_hierarchy.l1dcaches1.SwapReq.avgMshrMissLatency::processor.cores1.core.data  3250.399054                       # average SwapReq mshr miss latency ((Tick/Count))
board.cache_hierarchy.l1dcaches1.SwapReq.avgMshrMissLatency::total  3250.399054                       # average SwapReq mshr miss latency ((Tick/Count))
board.cache_hierarchy.l1dcaches1.WriteReq.hits::processor.cores1.core.data      1169829                       # number of WriteReq hits (Count)
board.cache_hierarchy.l1dcaches1.WriteReq.hits::total      1169829                       # number of WriteReq hits (Count)
board.cache_hierarchy.l1dcaches1.WriteReq.misses::processor.cores1.core.data        63272                       # number of WriteReq misses (Count)
board.cache_hierarchy.l1dcaches1.WriteReq.misses::total        63272                       # number of WriteReq misses (Count)
board.cache_hierarchy.l1dcaches1.WriteReq.missLatency::processor.cores1.core.data    480138599                       # number of WriteReq miss ticks (Tick)
board.cache_hierarchy.l1dcaches1.WriteReq.missLatency::total    480138599                       # number of WriteReq miss ticks (Tick)
board.cache_hierarchy.l1dcaches1.WriteReq.accesses::processor.cores1.core.data      1233101                       # number of WriteReq accesses(hits+misses) (Count)
board.cache_hierarchy.l1dcaches1.WriteReq.accesses::total      1233101                       # number of WriteReq accesses(hits+misses) (Count)
board.cache_hierarchy.l1dcaches1.WriteReq.missRate::processor.cores1.core.data     0.051311                       # miss rate for WriteReq accesses (Ratio)
board.cache_hierarchy.l1dcaches1.WriteReq.missRate::total     0.051311                       # miss rate for WriteReq accesses (Ratio)
board.cache_hierarchy.l1dcaches1.WriteReq.avgMissLatency::processor.cores1.core.data  7588.484622                       # average WriteReq miss latency ((Tick/Count))
board.cache_hierarchy.l1dcaches1.WriteReq.avgMissLatency::total  7588.484622                       # average WriteReq miss latency ((Tick/Count))
board.cache_hierarchy.l1dcaches1.WriteReq.mshrHits::processor.cores1.core.data        36499                       # number of WriteReq MSHR hits (Count)
board.cache_hierarchy.l1dcaches1.WriteReq.mshrHits::total        36499                       # number of WriteReq MSHR hits (Count)
board.cache_hierarchy.l1dcaches1.WriteReq.mshrMisses::processor.cores1.core.data        26773                       # number of WriteReq MSHR misses (Count)
board.cache_hierarchy.l1dcaches1.WriteReq.mshrMisses::total        26773                       # number of WriteReq MSHR misses (Count)
board.cache_hierarchy.l1dcaches1.WriteReq.mshrMissLatency::processor.cores1.core.data    156977250                       # number of WriteReq MSHR miss ticks (Tick)
board.cache_hierarchy.l1dcaches1.WriteReq.mshrMissLatency::total    156977250                       # number of WriteReq MSHR miss ticks (Tick)
board.cache_hierarchy.l1dcaches1.WriteReq.mshrMissRate::processor.cores1.core.data     0.021712                       # mshr miss rate for WriteReq accesses (Ratio)
board.cache_hierarchy.l1dcaches1.WriteReq.mshrMissRate::total     0.021712                       # mshr miss rate for WriteReq accesses (Ratio)
board.cache_hierarchy.l1dcaches1.WriteReq.avgMshrMissLatency::processor.cores1.core.data  5863.267097                       # average WriteReq mshr miss latency ((Tick/Count))
board.cache_hierarchy.l1dcaches1.WriteReq.avgMshrMissLatency::total  5863.267097                       # average WriteReq mshr miss latency ((Tick/Count))
board.cache_hierarchy.l1dcaches1.power_state.pwrStateResidencyTicks::UNDEFINED   7788850250                       # Cumulative time (in ticks) in various power states (Tick)
board.cache_hierarchy.l1dcaches1.prefetcher.demandMshrMisses        63751                       # demands not covered by prefetchs (Count)
board.cache_hierarchy.l1dcaches1.prefetcher.pfIssued       111339                       # number of hwpf issued (Count)
board.cache_hierarchy.l1dcaches1.prefetcher.pfUnused         1314                       # number of HardPF blocks evicted w/o reference (Count)
board.cache_hierarchy.l1dcaches1.prefetcher.pfUseful        27223                       # number of useful prefetch (Count)
board.cache_hierarchy.l1dcaches1.prefetcher.pfUsefulButMiss        17427                       # number of hit on prefetch but cache block is not in an usable state (Count)
board.cache_hierarchy.l1dcaches1.prefetcher.accuracy     0.244506                       # accuracy of the prefetcher (Count)
board.cache_hierarchy.l1dcaches1.prefetcher.coverage     0.299239                       # coverage brought by this prefetcher (Count)
board.cache_hierarchy.l1dcaches1.prefetcher.pfHitInCache        74472                       # number of prefetches hitting in cache (Count)
board.cache_hierarchy.l1dcaches1.prefetcher.pfHitInMSHR        25164                       # number of prefetches hitting in a MSHR (Count)
board.cache_hierarchy.l1dcaches1.prefetcher.pfHitInWB            0                       # number of prefetches hit in the Write Buffer (Count)
board.cache_hierarchy.l1dcaches1.prefetcher.pfLate        99636                       # number of late prefetches (hitting in cache, MSHR or WB) (Count)
board.cache_hierarchy.l1dcaches1.prefetcher.pfIdentified       120003                       # number of prefetch candidates identified (Count)
board.cache_hierarchy.l1dcaches1.prefetcher.pfBufferHit         6808                       # number of redundant prefetches already in prefetch queue (Count)
board.cache_hierarchy.l1dcaches1.prefetcher.pfInCache            0                       # number of redundant prefetches already in cache/mshr dropped (Count)
board.cache_hierarchy.l1dcaches1.prefetcher.pfRemovedDemand           69                       # number of prefetches dropped due to a demand for the same address (Count)
board.cache_hierarchy.l1dcaches1.prefetcher.pfRemovedFull            0                       # number of prefetches dropped due to prefetch queue size (Count)
board.cache_hierarchy.l1dcaches1.prefetcher.pfSpanPage         7081                       # number of prefetches that crossed the page (Count)
board.cache_hierarchy.l1dcaches1.prefetcher.pfUsefulSpanPage         3037                       # number of prefetches that is useful and crossed the page (Count)
board.cache_hierarchy.l1dcaches1.prefetcher.power_state.pwrStateResidencyTicks::UNDEFINED   7788850250                       # Cumulative time (in ticks) in various power states (Tick)
board.cache_hierarchy.l1dcaches1.tags.tagsInUse   417.577884                       # Average ticks per tags in use ((Tick/Count))
board.cache_hierarchy.l1dcaches1.tags.totalRefs      6965618                       # Total number of references to valid blocks. (Count)
board.cache_hierarchy.l1dcaches1.tags.sampledRefs        84713                       # Sample count of references to valid blocks. (Count)
board.cache_hierarchy.l1dcaches1.tags.avgRefs    82.226081                       # Average number of references to valid blocks. ((Count/Count))
board.cache_hierarchy.l1dcaches1.tags.warmupTick     74969500                       # The tick when the warmup percentage was hit. (Tick)
board.cache_hierarchy.l1dcaches1.tags.occupancies::cache_hierarchy.l1dcaches1.prefetcher    77.698818                       # Average occupied blocks per tick, per requestor ((Count/Tick))
board.cache_hierarchy.l1dcaches1.tags.occupancies::processor.cores1.core.data   339.879066                       # Average occupied blocks per tick, per requestor ((Count/Tick))
board.cache_hierarchy.l1dcaches1.tags.avgOccs::cache_hierarchy.l1dcaches1.prefetcher     0.151756                       # Average percentage of cache occupancy ((Ratio/Tick))
board.cache_hierarchy.l1dcaches1.tags.avgOccs::processor.cores1.core.data     0.663826                       # Average percentage of cache occupancy ((Ratio/Tick))
board.cache_hierarchy.l1dcaches1.tags.avgOccs::total     0.815582                       # Average percentage of cache occupancy ((Ratio/Tick))
board.cache_hierarchy.l1dcaches1.tags.occupanciesTaskId::1022           26                       # Occupied blocks per task id (Count)
board.cache_hierarchy.l1dcaches1.tags.occupanciesTaskId::1024          483                       # Occupied blocks per task id (Count)
board.cache_hierarchy.l1dcaches1.tags.ageTaskId_1022::0           12                       # Occupied blocks per task id, per block age (Count)
board.cache_hierarchy.l1dcaches1.tags.ageTaskId_1022::1           14                       # Occupied blocks per task id, per block age (Count)
board.cache_hierarchy.l1dcaches1.tags.ageTaskId_1024::0          136                       # Occupied blocks per task id, per block age (Count)
board.cache_hierarchy.l1dcaches1.tags.ageTaskId_1024::1          268                       # Occupied blocks per task id, per block age (Count)
board.cache_hierarchy.l1dcaches1.tags.ageTaskId_1024::2           79                       # Occupied blocks per task id, per block age (Count)
board.cache_hierarchy.l1dcaches1.tags.ratioOccsTaskId::1022     0.050781                       # Ratio of occupied blocks and all blocks, per task id (Ratio)
board.cache_hierarchy.l1dcaches1.tags.ratioOccsTaskId::1024     0.943359                       # Ratio of occupied blocks and all blocks, per task id (Ratio)
board.cache_hierarchy.l1dcaches1.tags.tagAccesses     56163201                       # Number of tag accesses (Count)
board.cache_hierarchy.l1dcaches1.tags.dataAccesses     56163201                       # Number of data accesses (Count)
board.cache_hierarchy.l1dcaches1.tags.power_state.pwrStateResidencyTicks::UNDEFINED   7788850250                       # Cumulative time (in ticks) in various power states (Tick)
board.cache_hierarchy.l1icaches0.demandHits::processor.cores0.core.inst      7387122                       # number of demand (read+write) hits (Count)
board.cache_hierarchy.l1icaches0.demandHits::total      7387122                       # number of demand (read+write) hits (Count)
board.cache_hierarchy.l1icaches0.overallHits::processor.cores0.core.inst      7387122                       # number of overall hits (Count)
board.cache_hierarchy.l1icaches0.overallHits::total      7387122                       # number of overall hits (Count)
board.cache_hierarchy.l1icaches0.demandMisses::processor.cores0.core.inst         8891                       # number of demand (read+write) misses (Count)
board.cache_hierarchy.l1icaches0.demandMisses::total         8891                       # number of demand (read+write) misses (Count)
board.cache_hierarchy.l1icaches0.overallMisses::processor.cores0.core.inst         8891                       # number of overall misses (Count)
board.cache_hierarchy.l1icaches0.overallMisses::total         8891                       # number of overall misses (Count)
board.cache_hierarchy.l1icaches0.demandMissLatency::processor.cores0.core.inst    130937550                       # number of demand (read+write) miss ticks (Tick)
board.cache_hierarchy.l1icaches0.demandMissLatency::total    130937550                       # number of demand (read+write) miss ticks (Tick)
board.cache_hierarchy.l1icaches0.overallMissLatency::processor.cores0.core.inst    130937550                       # number of overall miss ticks (Tick)
board.cache_hierarchy.l1icaches0.overallMissLatency::total    130937550                       # number of overall miss ticks (Tick)
board.cache_hierarchy.l1icaches0.demandAccesses::processor.cores0.core.inst      7396013                       # number of demand (read+write) accesses (Count)
board.cache_hierarchy.l1icaches0.demandAccesses::total      7396013                       # number of demand (read+write) accesses (Count)
board.cache_hierarchy.l1icaches0.overallAccesses::processor.cores0.core.inst      7396013                       # number of overall (read+write) accesses (Count)
board.cache_hierarchy.l1icaches0.overallAccesses::total      7396013                       # number of overall (read+write) accesses (Count)
board.cache_hierarchy.l1icaches0.demandMissRate::processor.cores0.core.inst     0.001202                       # miss rate for demand accesses (Ratio)
board.cache_hierarchy.l1icaches0.demandMissRate::total     0.001202                       # miss rate for demand accesses (Ratio)
board.cache_hierarchy.l1icaches0.overallMissRate::processor.cores0.core.inst     0.001202                       # miss rate for overall accesses (Ratio)
[...]
board.processor.cores1.core.fetch.icacheSquashes       189558                       # Number of outstanding Icache misses that were squashed (Count)
board.processor.cores1.core.fetch.nisnDist::samples     23021514                       # Number of instructions fetched each cycle (Total) (Count)
board.processor.cores1.core.fetch.nisnDist::mean     1.696629                       # Number of instructions fetched each cycle (Total) (Count)
board.processor.cores1.core.fetch.nisnDist::stdev     1.644383                       # Number of instructions fetched each cycle (Total) (Count)
board.processor.cores1.core.fetch.nisnDist::underflows            0      0.00%      0.00% # Number of instructions fetched each cycle (Total) (Count)
board.processor.cores1.core.fetch.nisnDist::0      8679246     37.70%     37.70% # Number of instructions fetched each cycle (Total) (Count)
board.processor.cores1.core.fetch.nisnDist::1      3343842     14.52%     52.23% # Number of instructions fetched each cycle (Total) (Count)
board.processor.cores1.core.fetch.nisnDist::2      3575027     15.53%     67.75% # Number of instructions fetched each cycle (Total) (Count)
board.processor.cores1.core.fetch.nisnDist::3      1128530      4.90%     72.66% # Number of instructions fetched each cycle (Total) (Count)
board.processor.cores1.core.fetch.nisnDist::4      6294869     27.34%    100.00% # Number of instructions fetched each cycle (Total) (Count)
board.processor.cores1.core.fetch.nisnDist::overflows            0      0.00%    100.00% # Number of instructions fetched each cycle (Total) (Count)
board.processor.cores1.core.fetch.nisnDist::min_value            0                       # Number of instructions fetched each cycle (Total) (Count)
board.processor.cores1.core.fetch.nisnDist::max_value            4                       # Number of instructions fetched each cycle (Total) (Count)
board.processor.cores1.core.fetch.nisnDist::total     23021514                       # Number of instructions fetched each cycle (Total) (Count)
board.processor.cores1.core.fetchStats0.numInsts     39021970                       # Number of instructions fetched (thread level) (Count)
board.processor.cores1.core.fetchStats0.numOps            0                       # Number of ops (including micro ops) fetched (thread level) (Count)
board.processor.cores1.core.fetchStats0.fetchRate     1.693106                       # Number of inst fetches per cycle ((Count/Cycle))
board.processor.cores1.core.fetchStats0.numBranches     11068289                       # Number of branches fetched (Count)
board.processor.cores1.core.fetchStats0.branchRate     0.480237                       # Number of branch fetches per cycle (Ratio)
board.processor.cores1.core.fetchStats0.icacheStallCycles      6107185                       # ICache total stall cycles (Cycle)
board.processor.cores1.core.fetchStats0.numFetchSuspends            0                       # Number of times Execute suspended instruction fetching (Count)
board.processor.cores1.core.iew.idleCycles            0                       # Number of cycles IEW is idle (Cycle)
board.processor.cores1.core.iew.squashCycles       880533                       # Number of cycles IEW is squashing (Cycle)
board.processor.cores1.core.iew.blockCycles      2612066                       # Number of cycles IEW is blocking (Cycle)
board.processor.cores1.core.iew.unblockCycles       740587                       # Number of cycles IEW is unblocking (Cycle)
board.processor.cores1.core.iew.dispatchedInsts     30780733                       # Number of instructions dispatched to IQ (Count)
board.processor.cores1.core.iew.dispSquashedInsts       127128                       # Number of squashed instructions skipped by dispatch (Count)
board.processor.cores1.core.iew.dispLoadInsts      7694925                       # Number of dispatched load instructions (Count)
board.processor.cores1.core.iew.dispStoreInsts      2460580                       # Number of dispatched store instructions (Count)
board.processor.cores1.core.iew.dispNonSpecInsts        37850                       # Number of dispatched non-speculative instructions (Count)
board.processor.cores1.core.iew.iqFullEvents        24012                       # Number of times the IQ has become full, causing a stall (Count)
board.processor.cores1.core.iew.lsqFullEvents       710622                       # Number of times the LSQ has become full, causing a stall (Count)
board.processor.cores1.core.iew.memOrderViolationEvents         2453                       # Number of memory order violations (Count)
board.processor.cores1.core.iew.predictedTakenIncorrect       392997                       # Number of branches that were predicted taken incorrectly (Count)
board.processor.cores1.core.iew.predictedNotTakenIncorrect       588523                       # Number of branches that were predicted not taken incorrectly (Count)
board.processor.cores1.core.iew.branchMispredicts       981520                       # Number of branch mispredicts detected at execute (Count)
board.processor.cores1.core.iew.instsToCommit     25081578                       # Cumulative count of insts sent to commit (Count)
board.processor.cores1.core.iew.writebackCount     24900798                       # Cumulative count of insts written-back (Count)
board.processor.cores1.core.iew.producerInst     11351485                       # Number of instructions producing a value (Count)
board.processor.cores1.core.iew.consumerInst     18652234                       # Number of instructions consuming a value (Count)
board.processor.cores1.core.iew.wbRate       1.080409                       # Insts written-back per cycle ((Count/Cycle))
board.processor.cores1.core.iew.wbFanout     0.608586                       # Average fanout of values written-back ((Count/Count))
board.processor.cores1.core.lsq0.forwLoads       201527                       # Number of loads that had data forwarded from stores (Count)
board.processor.cores1.core.lsq0.squashedLoads      2826823                       # Number of loads squashed (Count)
board.processor.cores1.core.lsq0.ignoredResponses          693                       # Number of memory responses ignored because the instruction is squashed (Count)
board.processor.cores1.core.lsq0.memOrderViolation         2453                       # Number of memory ordering violations (Count)
board.processor.cores1.core.lsq0.squashedStores      1191732                       # Number of stores squashed (Count)
board.processor.cores1.core.lsq0.rescheduledLoads           63                       # Number of loads that were rescheduled (Count)
board.processor.cores1.core.lsq0.blockedByCache          167                       # Number of times an access to memory failed due to the cache being blocked (Count)
board.processor.cores1.core.lsq0.loadToUse::samples      4868102                       # Distribution of cycle latency between the first time a load is issued and its completion (Unspecified)
board.processor.cores1.core.lsq0.loadToUse::mean     3.778993                       # Distribution of cycle latency between the first time a load is issued and its completion (Unspecified)
board.processor.cores1.core.lsq0.loadToUse::stdev     2.136161                       # Distribution of cycle latency between the first time a load is issued and its completion (Unspecified)
board.processor.cores1.core.lsq0.loadToUse::0-9      4836427     99.35%     99.35% # Distribution of cycle latency between the first time a load is issued and its completion (Unspecified)
board.processor.cores1.core.lsq0.loadToUse::10-19        30384      0.62%     99.97% # Distribution of cycle latency between the first time a load is issued and its completion (Unspecified)
board.processor.cores1.core.lsq0.loadToUse::20-29          964      0.02%     99.99% # Distribution of cycle latency between the first time a load is issued and its completion (Unspecified)
board.processor.cores1.core.lsq0.loadToUse::30-39          103      0.00%    100.00% # Distribution of cycle latency between the first time a load is issued and its completion (Unspecified)
board.processor.cores1.core.lsq0.loadToUse::40-49           25      0.00%    100.00% # Distribution of cycle latency between the first time a load is issued and its completion (Unspecified)
board.processor.cores1.core.lsq0.loadToUse::50-59           23      0.00%    100.00% # Distribution of cycle latency between the first time a load is issued and its completion (Unspecified)
board.processor.cores1.core.lsq0.loadToUse::60-69           15      0.00%    100.00% # Distribution of cycle latency between the first time a load is issued and its completion (Unspecified)
board.processor.cores1.core.lsq0.loadToUse::70-79           24      0.00%    100.00% # Distribution of cycle latency between the first time a load is issued and its completion (Unspecified)
board.processor.cores1.core.lsq0.loadToUse::80-89           20      0.00%    100.00% # Distribution of cycle latency between the first time a load is issued and its completion (Unspecified)
board.processor.cores1.core.lsq0.loadToUse::90-99            9      0.00%    100.00% # Distribution of cycle latency between the first time a load is issued and its completion (Unspecified)
board.processor.cores1.core.lsq0.loadToUse::100-109           27      0.00%    100.00% # Distribution of cycle latency between the first time a load is issued and its completion (Unspecified)
board.processor.cores1.core.lsq0.loadToUse::110-119           16      0.00%    100.00% # Distribution of cycle latency between the first time a load is issued and its completion (Unspecified)
board.processor.cores1.core.lsq0.loadToUse::120-129            8      0.00%    100.00% # Distribution of cycle latency between the first time a load is issued and its completion (Unspecified)
board.processor.cores1.core.lsq0.loadToUse::130-139            5      0.00%    100.00% # Distribution of cycle latency between the first time a load is issued and its completion (Unspecified)
board.processor.cores1.core.lsq0.loadToUse::140-149            8      0.00%    100.00% # Distribution of cycle latency between the first time a load is issued and its completion (Unspecified)
board.processor.cores1.core.lsq0.loadToUse::150-159            2      0.00%    100.00% # Distribution of cycle latency between the first time a load is issued and its completion (Unspecified)
board.processor.cores1.core.lsq0.loadToUse::160-169            3      0.00%    100.00% # Distribution of cycle latency between the first time a load is issued and its completion (Unspecified)
board.processor.cores1.core.lsq0.loadToUse::170-179            1      0.00%    100.00% # Distribution of cycle latency between the first time a load is issued and its completion (Unspecified)
board.processor.cores1.core.lsq0.loadToUse::200-209            1      0.00%    100.00% # Distribution of cycle latency between the first time a load is issued and its completion (Unspecified)
board.processor.cores1.core.lsq0.loadToUse::210-219            6      0.00%    100.00% # Distribution of cycle latency between the first time a load is issued and its completion (Unspecified)
board.processor.cores1.core.lsq0.loadToUse::220-229            3      0.00%    100.00% # Distribution of cycle latency between the first time a load is issued and its completion (Unspecified)
board.processor.cores1.core.lsq0.loadToUse::230-239            1      0.00%    100.00% # Distribution of cycle latency between the first time a load is issued and its completion (Unspecified)
board.processor.cores1.core.lsq0.loadToUse::overflows           27      0.00%    100.00% # Distribution of cycle latency between the first time a load is issued and its completion (Unspecified)
board.processor.cores1.core.lsq0.loadToUse::min_value            2                       # Distribution of cycle latency between the first time a load is issued and its completion (Unspecified)
board.processor.cores1.core.lsq0.loadToUse::max_value          743                       # Distribution of cycle latency between the first time a load is issued and its completion (Unspecified)
board.processor.cores1.core.lsq0.loadToUse::total      4868102                       # Distribution of cycle latency between the first time a load is issued and its completion (Unspecified)
board.processor.cores1.core.mmu.dtb.readHits            0                       # read hits (Count)
board.processor.cores1.core.mmu.dtb.readMisses            0                       # read misses (Count)
board.processor.cores1.core.mmu.dtb.readAccesses            0                       # read accesses (Count)
board.processor.cores1.core.mmu.dtb.writeHits            0                       # write hits (Count)
board.processor.cores1.core.mmu.dtb.writeMisses            0                       # write misses (Count)
board.processor.cores1.core.mmu.dtb.writeAccesses            0                       # write accesses (Count)
board.processor.cores1.core.mmu.dtb.hits            0                       # Total TLB (read and write) hits (Count)
board.processor.cores1.core.mmu.dtb.misses            0                       # Total TLB (read and write) misses (Count)
board.processor.cores1.core.mmu.dtb.accesses            0                       # Total TLB (read and write) accesses (Count)
board.processor.cores1.core.mmu.dtb.walker.power_state.pwrStateResidencyTicks::UNDEFINED   7788850250                       # Cumulative time (in ticks) in various power states (Tick)
board.processor.cores1.core.mmu.itb.readHits            0                       # read hits (Count)
board.processor.cores1.core.mmu.itb.readMisses            0                       # read misses (Count)
board.processor.cores1.core.mmu.itb.readAccesses            0                       # read accesses (Count)
board.processor.cores1.core.mmu.itb.writeHits            0                       # write hits (Count)
board.processor.cores1.core.mmu.itb.writeMisses            0                       # write misses (Count)
board.processor.cores1.core.mmu.itb.writeAccesses            0                       # write accesses (Count)
board.processor.cores1.core.mmu.itb.hits            0                       # Total TLB (read and write) hits (Count)
board.processor.cores1.core.mmu.itb.misses            0                       # Total TLB (read and write) misses (Count)
board.processor.cores1.core.mmu.itb.accesses            0                       # Total TLB (read and write) accesses (Count)
board.processor.cores1.core.mmu.itb.walker.power_state.pwrStateResidencyTicks::UNDEFINED   7788850250                       # Cumulative time (in ticks) in various power states (Tick)
board.processor.cores1.core.power_state.numTransitions          585                       # Number of power state transitions (Count)
board.processor.cores1.core.power_state.ticksClkGated::samples          293                       # Distribution of time spent in the clock gated state (Tick)
board.processor.cores1.core.power_state.ticksClkGated::mean 6662369.453925                       # Distribution of time spent in the clock gated state (Tick)
board.processor.cores1.core.power_state.ticksClkGated::stdev 97084311.680764                       # Distribution of time spent in the clock gated state (Tick)
board.processor.cores1.core.power_state.ticksClkGated::1000-5e+10          293    100.00%    100.00% # Distribution of time spent in the clock gated state (Tick)
board.processor.cores1.core.power_state.ticksClkGated::min_value         6000                       # Distribution of time spent in the clock gated state (Tick)
board.processor.cores1.core.power_state.ticksClkGated::max_value   1661929250                       # Distribution of time spent in the clock gated state (Tick)
board.processor.cores1.core.power_state.ticksClkGated::total          293                       # Distribution of time spent in the clock gated state (Tick)
board.processor.cores1.core.power_state.pwrStateResidencyTicks::ON   5836776000                       # Cumulative time (in ticks) in various power states (Tick)
board.processor.cores1.core.power_state.pwrStateResidencyTicks::CLK_GATED   1952074250                       # Cumulative time (in ticks) in various power states (Tick)
board.processor.cores1.core.rename.squashCycles       880533                       # Number of cycles rename is squashing (Cycle)
board.processor.cores1.core.rename.idleCycles      6658864                       # Number of cycles rename is idle (Cycle)
board.processor.cores1.core.rename.blockCycles      3349422                       # Number of cycles rename is blocking (Cycle)
board.processor.cores1.core.rename.serializeStallCycles        79171                       # count of cycles rename stalled for serializing inst (Cycle)
board.processor.cores1.core.rename.runCycles     11277089                       # Number of cycles rename is running (Cycle)
board.processor.cores1.core.rename.unblockCycles       776435                       # Number of cycles rename is unblocking (Cycle)
board.processor.cores1.core.rename.renamedInsts     34157158                       # Number of instructions processed by rename (Count)
board.processor.cores1.core.rename.ROBFullEvents         9193                       # Number of times rename has blocked due to ROB full (Count)
board.processor.cores1.core.rename.IQFullEvents        55477                       # Number of times rename has blocked due to IQ full (Count)
board.processor.cores1.core.rename.LQFullEvents       381291                       # Number of times rename has blocked due to LQ full (Count)
board.processor.cores1.core.rename.SQFullEvents        60219                       # Number of times rename has blocked due to SQ full (Count)
board.processor.cores1.core.rename.renamedOperands     21935492                       # Number of destination operands rename has renamed (Count)
board.processor.cores1.core.rename.lookups     46751968                       # Number of register rename lookups that rename has made (Count)
board.processor.cores1.core.rename.intLookups     46644409                       # Number of integer rename lookups (Count)
board.processor.cores1.core.rename.fpLookups           12                       # Number of floating rename lookups (Count)
board.processor.cores1.core.rename.committedMaps     12639857                       # Number of HB maps that are committed (Count)
board.processor.cores1.core.rename.undoneMaps      9295635                       # Number of HB maps that are undone due to squashing (Count)
board.processor.cores1.core.rename.serializing         3352                       # count of serializing insts renamed (Count)
board.processor.cores1.core.rename.tempSerializing         3825                       # count of temporary serializing insts renamed (Count)
board.processor.cores1.core.rename.skidInsts      1069701                       # count of insts added to the skid buffer (Count)
board.processor.cores1.core.rob.reads        48639000                       # The number of ROB reads (Count)
board.processor.cores1.core.rob.writes       64856864                       # The number of ROB writes (Count)
board.processor.cores1.core.thread_0.numInsts     19330313                       # Number of Instructions committed (Count)
board.processor.cores1.core.thread_0.numOps     19365022                       # Number of Ops committed (Count)
board.processor.cores1.core.thread_0.numMemRefs            0                       # Number of Memory References (Count)
board.workload.inst.arm                             0                       # number of arm instructions executed (Count)
board.workload.inst.quiesce                         0                       # number of quiesce instructions executed (Count)

---------- End Simulation Statistics   ----------
