
---------- Begin Simulation Statistics ----------
simSeconds                                   0.019522                       # Number of seconds simulated (Second)
simTicks                                  19522456750                       # Number of ticks simulated (Tick)
finalTick                                 19522456750                       # Number of ticks from beginning of simulation (restored from checkpoints and never reset) (Tick)
simFreq                                  1000000000000                       # The number of ticks per simulated second ((Tick/Second))
hostSeconds                                    166.82                       # Real time elapsed on the host (Second)
hostTickRate                                117024300                       # The number of ticks simulated per host second (ticks/s) ((Tick/Second))
hostMemory                                    8640900                       # Number of bytes of host memory used (Byte)
simInsts                                     47920849                       # Number of instructions simulated (Count)
simOps                                       47990186                       # Number of ops (including micro ops) simulated (Count)
hostInstRate                                   287254                       # Simulator instruction rate (inst/s) ((Count/Second))
hostOpRate                                     287670                       # Simulator op (including micro ops) rate (op/s) ((Count/Second))
board.cache_hierarchy.dptw_caches0.blockedCycles::no_mshrs            0                       # number of cycles access was blocked (Cycle)
board.cache_hierarchy.dptw_caches0.blockedCycles::no_targets            0                       # number of cycles access was blocked (Cycle)
board.cache_hierarchy.dptw_caches0.blockedCauses::no_mshrs            0                       # number of times access was blocked (Count)
board.cache_hierarchy.dptw_caches0.blockedCauses::no_targets            0                       # number of times access was blocked (Count)
board.cache_hierarchy.dptw_caches0.avgBlocked::no_mshrs          nan                       # average number of cycles each access was blocked ((Cycle/Count))
board.cache_hierarchy.dptw_caches0.avgBlocked::no_targets          nan                       # average number of cycles each access was blocked ((Cycle/Count))
board.cache_hierarchy.dptw_caches0.replacements            0                       # number of replacements (Count)
board.cache_hierarchy.dptw_caches0.power_state.pwrStateResidencyTicks::UNDEFINED  19522456750                       # Cumulative time (in ticks) in various power states (Tick)
board.cache_hierarchy.dptw_caches0.tags.tagsInUse            0                       # Average ticks per tags in use ((Tick/Count))
board.cache_hierarchy.dptw_caches0.tags.totalRefs            0                       # Total number of references to valid blocks. (Count)
board.cache_hierarchy.dptw_caches0.tags.sampledRefs            0                       # Sample count of references to valid blocks. (Count)
board.cache_hierarchy.dptw_caches0.tags.avgRefs          nan                       # Average number of references to valid blocks. ((Count/Count))
board.cache_hierarchy.dptw_caches0.tags.warmupTick            0                       # The tick when the warmup percentage was hit. (Tick)
board.cache_hierarchy.dptw_caches0.tags.tagAccesses            0                       # Number of tag accesses (Count)
board.cache_hierarchy.dptw_caches0.tags.dataAccesses            0                       # Number of data accesses (Count)
board.cache_hierarchy.dptw_caches0.tags.power_state.pwrStateResidencyTicks::UNDEFINED  19522456750                       # Cumulative time (in ticks) in various power states (Tick)
board.cache_hierarchy.dptw_caches1.blockedCycles::no_mshrs            0                       # number of cycles access was blocked (Cycle)
board.cache_hierarchy.dptw_caches1.blockedCycles::no_targets            0                       # number of cycles access was blocked (Cycle)
board.cache_hierarchy.dptw_caches1.blockedCauses::no_mshrs            0                       # number of times access was blocked (Count)
board.cache_hierarchy.dptw_caches1.blockedCauses::no_targets            0                       # number of times access was blocked (Count)
board.cache_hierarchy.dptw_caches1.avgBlocked::no_mshrs          nan                       # average number of cycles each access was blocked ((Cycle/Count))
board.cache_hierarchy.dptw_caches1.avgBlocked::no_targets          nan                       # average number of cycles each access was blocked ((Cycle/Count))
board.cache_hierarchy.dptw_caches1.replacements            0                       # number of replacements (Count)
board.cache_hierarchy.dptw_caches1.power_state.pwrStateResidencyTicks::UNDEFINED  19522456750                       # Cumulative time (in ticks) in various power states (Tick)
board.cache_hierarchy.dptw_caches1.tags.tagsInUse            0                       # Average ticks per tags in use ((Tick/Count))
board.cache_hierarchy.dptw_caches1.tags.totalRefs            0                       # Total number of references to valid blocks. (Count)
board.cache_hierarchy.dptw_caches1.tags.sampledRefs            0                       # Sample count of references to valid blocks. (Count)
board.cache_hierarchy.dptw_caches1.tags.avgRefs          nan                       # Average number of references to valid blocks. ((Count/Count))
board.cache_hierarchy.dptw_caches1.tags.warmupTick            0                       # The tick when the warmup percentage was hit. (Tick)
board.cache_hierarchy.dptw_caches1.tags.tagAccesses            0                       # Number of tag accesses (Count)
board.cache_hierarchy.dptw_caches1.tags.dataAccesses            0                       # Number of data accesses (Count)
board.cache_hierarchy.dptw_caches1.tags.power_state.pwrStateResidencyTicks::UNDEFINED  19522456750                       # Cumulative time (in ticks) in various power states (Tick)
board.cache_hierarchy.iptw_caches0.blockedCycles::no_mshrs            0                       # number of cycles access was blocked (Cycle)
board.cache_hierarchy.iptw_caches0.blockedCycles::no_targets            0                       # number of cycles access was blocked (Cycle)
board.cache_hierarchy.iptw_caches0.blockedCauses::no_mshrs            0                       # number of times access was blocked (Count)
board.cache_hierarchy.iptw_caches0.blockedCauses::no_targets            0                       # number of times access was blocked (Count)
board.cache_hierarchy.iptw_caches0.avgBlocked::no_mshrs          nan                       # average number of cycles each access was blocked ((Cycle/Count))
board.cache_hierarchy.iptw_caches0.avgBlocked::no_targets          nan                       # average number of cycles each access was blocked ((Cycle/Count))
board.cache_hierarchy.iptw_caches0.replacements            0                       # number of replacements (Count)
board.cache_hierarchy.iptw_caches0.power_state.pwrStateResidencyTicks::UNDEFINED  19522456750                       # Cumulative time (in ticks) in various power states (Tick)
board.cache_hierarchy.iptw_caches0.tags.tagsInUse            0                       # Average ticks per tags in use ((Tick/Count))
board.cache_hierarchy.iptw_caches0.tags.totalRefs            0                       # Total number of references to valid blocks. (Count)
board.cache_hierarchy.iptw_caches0.tags.sampledRefs            0                       # Sample count of references to valid blocks. (Count)
board.cache_hierarchy.iptw_caches0.tags.avgRefs          nan                       # Average number of references to valid blocks. ((Count/Count))
board.cache_hierarchy.iptw_caches0.tags.warmupTick            0                       # The tick when the warmup percentage was hit. (Tick)
board.cache_hierarchy.iptw_caches0.tags.tagAccesses            0                       # Number of tag accesses (Count)
board.cache_hierarchy.iptw_caches0.tags.dataAccesses            0                       # Number of data accesses (Count)
board.cache_hierarchy.iptw_caches0.tags.power_state.pwrStateResidencyTicks::UNDEFINED  19522456750                       # Cumulative time (in ticks) in various power states (Tick)
board.cache_hierarchy.iptw_caches1.blockedCycles::no_mshrs            0                       # number of cycles access was blocked (Cycle)
board.cache_hierarchy.iptw_caches1.blockedCycles::no_targets            0                       # number of cycles access was blocked (Cycle)
board.cache_hierarchy.iptw_caches1.blockedCauses::no_mshrs            0                       # number of times access was blocked (Count)
board.cache_hierarchy.iptw_caches1.blockedCauses::no_targets            0                       # number of times access was blocked (Count)
board.cache_hierarchy.iptw_caches1.avgBlocked::no_mshrs          nan                       # average number of cycles each access was blocked ((Cycle/Count))
board.cache_hierarchy.iptw_caches1.avgBlocked::no_targets          nan                       # average number of cycles each access was blocked ((Cycle/Count))
board.cache_hierarchy.iptw_caches1.replacements            0                       # number of replacements (Count)
board.cache_hierarchy.iptw_caches1.power_state.pwrStateResidencyTicks::UNDEFINED  19522456750                       # Cumulative time (in ticks) in various power states (Tick)
board.cache_hierarchy.iptw_caches1.tags.tagsInUse            0                       # Average ticks per tags in use ((Tick/Count))
board.cache_hierarchy.iptw_caches1.tags.totalRefs            0                       # Total number of references to valid blocks. (Count)
board.cache_hierarchy.iptw_caches1.tags.sampledRefs            0                       # Sample count of references to valid blocks. (Count)
board.cache_hierarchy.iptw_caches1.tags.avgRefs          nan                       # Average number of references to valid blocks. ((Count/Count))
board.cache_hierarchy.iptw_caches1.tags.warmupTick            0                       # The tick when the warmup percentage was hit. (Tick)
board.cache_hierarchy.iptw_caches1.tags.tagAccesses            0                       # Number of tag accesses (Count)
board.cache_hierarchy.iptw_caches1.tags.dataAccesses            0                       # Number of data accesses (Count)
board.cache_hierarchy.iptw_caches1.tags.power_state.pwrStateResidencyTicks::UNDEFINED  19522456750                       # Cumulative time (in ticks) in various power states (Tick)
board.cache_hierarchy.l1dcaches0.demandHits::processor.cores0.core.data      8834434                       # number of demand (read+write) hits (Count)
board.cache_hierarchy.l1dcaches0.demandHits::total      8834434                       # number of demand (read+write) hits (Count)
board.cache_hierarchy.l1dcaches0.overallHits::processor.cores0.core.data      8834434                       # number of overall hits (Count)
board.cache_hierarchy.l1dcaches0.overallHits::total      8834434                       # number of overall hits (Count)
board.cache_hierarchy.l1dcaches0.demandMisses::processor.cores0.core.data       167191                       # number of demand (read+write) misses (Count)
board.cache_hierarchy.l1dcaches0.demandMisses::total       167191                       # number of demand (read+write) misses (Count)
board.cache_hierarchy.l1dcaches0.overallMisses::processor.cores0.core.data       167191                       # number of overall misses (Count)
board.cache_hierarchy.l1dcaches0.overallMisses::total       167191                       # number of overall misses (Count)
board.cache_hierarchy.l1dcaches0.demandMissLatency::processor.cores0.core.data   1624747999                       # number of demand (read+write) miss ticks (Tick)
board.cache_hierarchy.l1dcaches0.demandMissLatency::total   1624747999                       # number of demand (read+write) miss ticks (Tick)
board.cache_hierarchy.l1dcaches0.overallMissLatency::processor.cores0.core.data   1624747999                       # number of overall miss ticks (Tick)
board.cache_hierarchy.l1dcaches0.overallMissLatency::total   1624747999                       # number of overall miss ticks (Tick)
board.cache_hierarchy.l1dcaches0.demandAccesses::processor.cores0.core.data      9001625                       # number of demand (read+write) accesses (Count)
board.cache_hierarchy.l1dcaches0.demandAccesses::total      9001625                       # number of demand (read+write) accesses (Count)
board.cache_hierarchy.l1dcaches0.overallAccesses::processor.cores0.core.data      9001625                       # number of overall (read+write) accesses (Count)
board.cache_hierarchy.l1dcaches0.overallAccesses::total      9001625                       # number of overall (read+write) accesses (Count)
board.cache_hierarchy.l1dcaches0.demandMissRate::processor.cores0.core.data     0.018573                       # miss rate for demand accesses (Ratio)
board.cache_hierarchy.l1dcaches0.demandMissRate::total     0.018573                       # miss rate for demand accesses (Ratio)
board.cache_hierarchy.l1dcaches0.overallMissRate::processor.cores0.core.data     0.018573                       # miss rate for overall accesses (Ratio)
board.cache_hierarchy.l1dcaches0.overallMissRate::total     0.018573                       # miss rate for overall accesses (Ratio)
board.cache_hierarchy.l1dcaches0.demandAvgMissLatency::processor.cores0.core.data  9717.915432                       # average overall miss latency in ticks ((Tick/Count))
board.cache_hierarchy.l1dcaches0.demandAvgMissLatency::total  9717.915432                       # average overall miss latency in ticks ((Tick/Count))
board.cache_hierarchy.l1dcaches0.overallAvgMissLatency::processor.cores0.core.data  9717.915432                       # average overall miss latency ((Tick/Count))
board.cache_hierarchy.l1dcaches0.overallAvgMissLatency::total  9717.915432                       # average overall miss latency ((Tick/Count))
board.cache_hierarchy.l1dcaches0.blockedCycles::no_mshrs            0                       # number of cycles access was blocked (Cycle)
board.cache_hierarchy.l1dcaches0.blockedCycles::no_targets        17898                       # number of cycles access was blocked (Cycle)
board.cache_hierarchy.l1dcaches0.blockedCauses::no_mshrs            0                       # number of times access was blocked (Count)
board.cache_hierarchy.l1dcaches0.blockedCauses::no_targets          503                       # number of times access was blocked (Count)
board.cache_hierarchy.l1dcaches0.avgBlocked::no_mshrs          nan                       # average number of cycles each access was blocked ((Cycle/Count))
board.cache_hierarchy.l1dcaches0.avgBlocked::no_targets    35.582505                       # average number of cycles each access was blocked ((Cycle/Count))
board.cache_hierarchy.l1dcaches0.writebacks::writebacks        40953                       # number of writebacks (Count)
board.cache_hierarchy.l1dcaches0.writebacks::total        40953                       # number of writebacks (Count)
board.cache_hierarchy.l1dcaches0.demandMshrHits::processor.cores0.core.data        99279                       # number of demand (read+write) MSHR hits (Count)
board.cache_hierarchy.l1dcaches0.demandMshrHits::total        99279                       # number of demand (read+write) MSHR hits (Count)
board.cache_hierarchy.l1dcaches0.overallMshrHits::processor.cores0.core.data        99279                       # number of overall MSHR hits (Count)
board.cache_hierarchy.l1dcaches0.overallMshrHits::total        99279                       # number of overall MSHR hits (Count)
board.cache_hierarchy.l1dcaches0.demandMshrMisses::processor.cores0.core.data        67912                       # number of demand (read+write) MSHR misses (Count)
board.cache_hierarchy.l1dcaches0.demandMshrMisses::total        67912                       # number of demand (read+write) MSHR misses (Count)
board.cache_hierarchy.l1dcaches0.overallMshrMisses::cache_hierarchy.l1dcaches0.prefetcher        20945                       # number of overall MSHR misses (Count)
board.cache_hierarchy.l1dcaches0.overallMshrMisses::processor.cores0.core.data        67912                       # number of overall MSHR misses (Count)
board.cache_hierarchy.l1dcaches0.overallMshrMisses::total        88857                       # number of overall MSHR misses (Count)
board.cache_hierarchy.l1dcaches0.demandMshrMissLatency::processor.cores0.core.data    699053750                       # number of demand (read+write) MSHR miss ticks (Tick)
board.cache_hierarchy.l1dcaches0.demandMshrMissLatency::total    699053750                       # number of demand (read+write) MSHR miss ticks (Tick)
board.cache_hierarchy.l1dcaches0.overallMshrMissLatency::cache_hierarchy.l1dcaches0.prefetcher    264279541                       # number of overall MSHR miss ticks (Tick)
board.cache_hierarchy.l1dcaches0.overallMshrMissLatency::processor.cores0.core.data    699053750                       # number of overall MSHR miss ticks (Tick)
board.cache_hierarchy.l1dcaches0.overallMshrMissLatency::total    963333291                       # number of overall MSHR miss ticks (Tick)
board.cache_hierarchy.l1dcaches0.demandMshrMissRate::processor.cores0.core.data     0.007544                       # mshr miss ratio for demand accesses (Ratio)
board.cache_hierarchy.l1dcaches0.demandMshrMissRate::total     0.007544                       # mshr miss ratio for demand accesses (Ratio)
board.cache_hierarchy.l1dcaches0.overallMshrMissRate::cache_hierarchy.l1dcaches0.prefetcher          inf                       # mshr miss ratio for overall accesses (Ratio)
board.cache_hierarchy.l1dcaches0.overallMshrMissRate::processor.cores0.core.data     0.007544                       # mshr miss ratio for overall accesses (Ratio)
board.cache_hierarchy.l1dcaches0.overallMshrMissRate::total     0.009871                       # mshr miss ratio for overall accesses (Ratio)
board.cache_hierarchy.l1dcaches0.demandAvgMshrMissLatency::processor.cores0.core.data 10293.523236                       # average overall mshr miss latency ((Tick/Count))
board.cache_hierarchy.l1dcaches0.demandAvgMshrMissLatency::total 10293.523236                       # average overall mshr miss latency ((Tick/Count))
board.cache_hierarchy.l1dcaches0.overallAvgMshrMissLatency::cache_hierarchy.l1dcaches0.prefetcher 12617.786632                       # average overall mshr miss latency ((Tick/Count))
board.cache_hierarchy.l1dcaches0.overallAvgMshrMissLatency::processor.cores0.core.data 10293.523236                       # average overall mshr miss latency ((Tick/Count))
board.cache_hierarchy.l1dcaches0.overallAvgMshrMissLatency::total 10841.388872                       # average overall mshr miss latency ((Tick/Count))
board.cache_hierarchy.l1dcaches0.replacements        66321                       # number of replacements (Count)
board.cache_hierarchy.l1dcaches0.HardPFReq.mshrMisses::cache_hierarchy.l1dcaches0.prefetcher        20945                       # number of HardPFReq MSHR misses (Count)
board.cache_hierarchy.l1dcaches0.HardPFReq.mshrMisses::total        20945                       # number of HardPFReq MSHR misses (Count)
board.cache_hierarchy.l1dcaches0.HardPFReq.mshrMissLatency::cache_hierarchy.l1dcaches0.prefetcher    264279541                       # number of HardPFReq MSHR miss ticks (Tick)
board.cache_hierarchy.l1dcaches0.HardPFReq.mshrMissLatency::total    264279541                       # number of HardPFReq MSHR miss ticks (Tick)
board.cache_hierarchy.l1dcaches0.HardPFReq.mshrMissRate::cache_hierarchy.l1dcaches0.prefetcher          inf                       # mshr miss rate for HardPFReq accesses (Ratio)
board.cache_hierarchy.l1dcaches0.HardPFReq.mshrMissRate::total          inf                       # mshr miss rate for HardPFReq accesses (Ratio)
board.cache_hierarchy.l1dcaches0.HardPFReq.avgMshrMissLatency::cache_hierarchy.l1dcaches0.prefetcher 12617.786632                       # average HardPFReq mshr miss latency ((Tick/Count))
board.cache_hierarchy.l1dcaches0.HardPFReq.avgMshrMissLatency::total 12617.786632                       # average HardPFReq mshr miss latency ((Tick/Count))
board.cache_hierarchy.l1dcaches0.LoadLockedReq.hits::processor.cores0.core.data         2139                       # number of LoadLockedReq hits (Count)
board.cache_hierarchy.l1dcaches0.LoadLockedReq.hits::total         2139                       # number of LoadLockedReq hits (Count)
board.cache_hierarchy.l1dcaches0.LoadLockedReq.misses::processor.cores0.core.data          543                       # number of LoadLockedReq misses (Count)
board.cache_hierarchy.l1dcaches0.LoadLockedReq.misses::total          543                       # number of LoadLockedReq misses (Count)
board.cache_hierarchy.l1dcaches0.LoadLockedReq.missLatency::processor.cores0.core.data      5866000                       # number of LoadLockedReq miss ticks (Tick)
board.cache_hierarchy.l1dcaches0.LoadLockedReq.missLatency::total      5866000                       # number of LoadLockedReq miss ticks (Tick)
board.cache_hierarchy.l1dcaches0.LoadLockedReq.accesses::processor.cores0.core.data         2682                       # number of LoadLockedReq accesses(hits+misses) (Count)
board.cache_hierarchy.l1dcaches0.LoadLockedReq.accesses::total         2682                       # number of LoadLockedReq accesses(hits+misses) (Count)
board.cache_hierarchy.l1dcaches0.LoadLockedReq.missRate::processor.cores0.core.data     0.202461                       # miss rate for LoadLockedReq accesses (Ratio)
board.cache_hierarchy.l1dcaches0.LoadLockedReq.missRate::total     0.202461                       # miss rate for LoadLockedReq accesses (Ratio)
board.cache_hierarchy.l1dcaches0.LoadLockedReq.avgMissLatency::processor.cores0.core.data 10802.946593                       # average LoadLockedReq miss latency ((Tick/Count))
board.cache_hierarchy.l1dcaches0.LoadLockedReq.avgMissLatency::total 10802.946593                       # average LoadLockedReq miss latency ((Tick/Count))
board.cache_hierarchy.l1dcaches0.LoadLockedReq.mshrHits::processor.cores0.core.data          517                       # number of LoadLockedReq MSHR hits (Count)
board.cache_hierarchy.l1dcaches0.LoadLockedReq.mshrHits::total          517                       # number of LoadLockedReq MSHR hits (Count)
board.cache_hierarchy.l1dcaches0.LoadLockedReq.mshrMisses::processor.cores0.core.data           26                       # number of LoadLockedReq MSHR misses (Count)
board.cache_hierarchy.l1dcaches0.LoadLockedReq.mshrMisses::total           26                       # number of LoadLockedReq MSHR misses (Count)
board.cache_hierarchy.l1dcaches0.LoadLockedReq.mshrMissLatency::processor.cores0.core.data       413250                       # number of LoadLockedReq MSHR miss ticks (Tick)
board.cache_hierarchy.l1dcaches0.LoadLockedReq.mshrMissLatency::total       413250                       # number of LoadLockedReq MSHR miss ticks (Tick)
board.cache_hierarchy.l1dcaches0.LoadLockedReq.mshrMissRate::processor.cores0.core.data     0.009694                       # mshr miss rate for LoadLockedReq accesses (Ratio)
board.cache_hierarchy.l1dcaches0.LoadLockedReq.mshrMissRate::total     0.009694                       # mshr miss rate for LoadLockedReq accesses (Ratio)
board.cache_hierarchy.l1dcaches0.LoadLockedReq.avgMshrMissLatency::processor.cores0.core.data 15894.230769                       # average LoadLockedReq mshr miss latency ((Tick/Count))
board.cache_hierarchy.l1dcaches0.LoadLockedReq.avgMshrMissLatency::total 15894.230769                       # average LoadLockedReq mshr miss latency ((Tick/Count))
board.cache_hierarchy.l1dcaches0.ReadReq.hits::processor.cores0.core.data      7251827                       # number of ReadReq hits (Count)
board.cache_hierarchy.l1dcaches0.ReadReq.hits::total      7251827                       # number of ReadReq hits (Count)
board.cache_hierarchy.l1dcaches0.ReadReq.misses::processor.cores0.core.data        88130                       # number of ReadReq misses (Count)
board.cache_hierarchy.l1dcaches0.ReadReq.misses::total        88130                       # number of ReadReq misses (Count)
board.cache_hierarchy.l1dcaches0.ReadReq.missLatency::processor.cores0.core.data    537882750                       # number of ReadReq miss ticks (Tick)
board.cache_hierarchy.l1dcaches0.ReadReq.missLatency::total    537882750                       # number of ReadReq miss ticks (Tick)
board.cache_hierarchy.l1dcaches0.ReadReq.accesses::processor.cores0.core.data      7339957                       # number of ReadReq accesses(hits+misses) (Count)
board.cache_hierarchy.l1dcaches0.ReadReq.accesses::total      7339957                       # number of ReadReq accesses(hits+misses) (Count)
board.cache_hierarchy.l1dcaches0.ReadReq.missRate::processor.cores0.core.data     0.012007                       # miss rate for ReadReq accesses (Ratio)
board.cache_hierarchy.l1dcaches0.ReadReq.missRate::total     0.012007                       # miss rate for ReadReq accesses (Ratio)
board.cache_hierarchy.l1dcaches0.ReadReq.avgMissLatency::processor.cores0.core.data  6103.287757                       # average ReadReq miss latency ((Tick/Count))
board.cache_hierarchy.l1dcaches0.ReadReq.avgMissLatency::total  6103.287757                       # average ReadReq miss latency ((Tick/Count))
board.cache_hierarchy.l1dcaches0.ReadReq.mshrHits::processor.cores0.core.data        49765                       # number of ReadReq MSHR hits (Count)
board.cache_hierarchy.l1dcaches0.ReadReq.mshrHits::total        49765                       # number of ReadReq MSHR hits (Count)
board.cache_hierarchy.l1dcaches0.ReadReq.mshrMisses::processor.cores0.core.data        38365                       # number of ReadReq MSHR misses (Count)
board.cache_hierarchy.l1dcaches0.ReadReq.mshrMisses::total        38365                       # number of ReadReq MSHR misses (Count)
board.cache_hierarchy.l1dcaches0.ReadReq.mshrMissLatency::processor.cores0.core.data    268255750                       # number of ReadReq MSHR miss ticks (Tick)
board.cache_hierarchy.l1dcaches0.ReadReq.mshrMissLatency::total    268255750                       # number of ReadReq MSHR miss ticks (Tick)
board.cache_hierarchy.l1dcaches0.ReadReq.mshrMissRate::processor.cores0.core.data     0.005227                       # mshr miss rate for ReadReq accesses (Ratio)
board.cache_hierarchy.l1dcaches0.ReadReq.mshrMissRate::total     0.005227                       # mshr miss rate for ReadReq accesses (Ratio)
board.cache_hierarchy.l1dcaches0.ReadReq.avgMshrMissLatency::processor.cores0.core.data  6992.199922                       # average ReadReq mshr miss latency ((Tick/Count))
board.cache_hierarchy.l1dcaches0.ReadReq.avgMshrMissLatency::total  6992.199922                       # average ReadReq mshr miss latency ((Tick/Count))
board.cache_hierarchy.l1dcaches0.StoreCondReq.hits::processor.cores0.core.data         1368                       # number of StoreCondReq hits (Count)
board.cache_hierarchy.l1dcaches0.StoreCondReq.hits::total         1368                       # number of StoreCondReq hits (Count)
board.cache_hierarchy.l1dcaches0.StoreCondReq.misses::processor.cores0.core.data          634                       # number of StoreCondReq misses (Count)
board.cache_hierarchy.l1dcaches0.StoreCondReq.misses::total          634                       # number of StoreCondReq misses (Count)
board.cache_hierarchy.l1dcaches0.StoreCondReq.missLatency::processor.cores0.core.data      7461250                       # number of StoreCondReq miss ticks (Tick)
board.cache_hierarchy.l1dcaches0.StoreCondReq.missLatency::total      7461250                       # number of StoreCondReq miss ticks (Tick)
board.cache_hierarchy.l1dcaches0.StoreCondReq.accesses::processor.cores0.core.data         2002                       # number of StoreCondReq accesses(hits+misses) (Count)
board.cache_hierarchy.l1dcaches0.StoreCondReq.accesses::total         2002                       # number of StoreCondReq accesses(hits+misses) (Count)
board.cache_hierarchy.l1dcaches0.StoreCondReq.missRate::processor.cores0.core.data     0.316683                       # miss rate for StoreCondReq accesses (Ratio)
board.cache_hierarchy.l1dcaches0.StoreCondReq.missRate::total     0.316683                       # miss rate for StoreCondReq accesses (Ratio)
board.cache_hierarchy.l1dcaches0.StoreCondReq.avgMissLatency::processor.cores0.core.data 11768.533123                       # average StoreCondReq miss latency ((Tick/Count))
board.cache_hierarchy.l1dcaches0.StoreCondReq.avgMissLatency::total 11768.533123                       # average StoreCondReq miss latency ((Tick/Count))
board.cache_hierarchy.l1dcaches0.StoreCondReq.mshrMisses::processor.cores0.core.data          634                       # number of StoreCondReq MSHR misses (Count)
board.cache_hierarchy.l1dcaches0.StoreCondReq.mshrMisses::total          634                       # number of StoreCondReq MSHR misses (Count)
board.cache_hierarchy.l1dcaches0.StoreCondReq.mshrMissLatency::processor.cores0.core.data      7302750                       # number of StoreCondReq MSHR miss ticks (Tick)
board.cache_hierarchy.l1dcaches0.StoreCondReq.mshrMissLatency::total      7302750                       # number of StoreCondReq MSHR miss ticks (Tick)
board.cache_hierarchy.l1dcaches0.StoreCondReq.mshrMissRate::processor.cores0.core.data     0.316683                       # mshr miss rate for StoreCondReq accesses (Ratio)
board.cache_hierarchy.l1dcaches0.StoreCondReq.mshrMissRate::total     0.316683                       # mshr miss rate for StoreCondReq accesses (Ratio)
board.cache_hierarchy.l1dcaches0.StoreCondReq.avgMshrMissLatency::processor.cores0.core.data 11518.533123                       # average StoreCondReq mshr miss latency ((Tick/Count))
board.cache_hierarchy.l1dcaches0.StoreCondReq.avgMshrMissLatency::total 11518.533123                       # average StoreCondReq mshr miss latency ((Tick/Count))
board.cache_hierarchy.l1dcaches0.SwapReq.hits::processor.cores0.core.data        17752                       # number of SwapReq hits (Count)
board.cache_hierarchy.l1dcaches0.SwapReq.hits::total        17752                       # number of SwapReq hits (Count)
board.cache_hierarchy.l1dcaches0.SwapReq.misses::processor.cores0.core.data        16780                       # number of SwapReq misses (Count)
board.cache_hierarchy.l1dcaches0.SwapReq.misses::total        16780                       # number of SwapReq misses (Count)
board.cache_hierarchy.l1dcaches0.SwapReq.missLatency::processor.cores0.core.data    192918000                       # number of SwapReq miss ticks (Tick)
board.cache_hierarchy.l1dcaches0.SwapReq.missLatency::total    192918000                       # number of SwapReq miss ticks (Tick)
board.cache_hierarchy.l1dcaches0.SwapReq.accesses::processor.cores0.core.data        34532                       # number of SwapReq accesses(hits+misses) (Count)
board.cache_hierarchy.l1dcaches0.SwapReq.accesses::total        34532                       # number of SwapReq accesses(hits+misses) (Count)
board.cache_hierarchy.l1dcaches0.SwapReq.missRate::processor.cores0.core.data     0.485926                       # miss rate for SwapReq accesses (Ratio)
board.cache_hierarchy.l1dcaches0.SwapReq.missRate::total     0.485926                       # miss rate for SwapReq accesses (Ratio)
board.cache_hierarchy.l1dcaches0.SwapReq.avgMissLatency::processor.cores0.core.data 11496.901073                       # average SwapReq miss latency ((Tick/Count))
board.cache_hierarchy.l1dcaches0.SwapReq.avgMissLatency::total 11496.901073                       # average SwapReq miss latency ((Tick/Count))
board.cache_hierarchy.l1dcaches0.SwapReq.mshrMisses::processor.cores0.core.data        16780                       # number of SwapReq MSHR misses (Count)
board.cache_hierarchy.l1dcaches0.SwapReq.mshrMisses::total        16780                       # number of SwapReq MSHR misses (Count)
board.cache_hierarchy.l1dcaches0.SwapReq.mshrMissLatency::processor.cores0.core.data    188723000                       # number of SwapReq MSHR miss ticks (Tick)
board.cache_hierarchy.l1dcaches0.SwapReq.mshrMissLatency::total    188723000                       # number of SwapReq MSHR miss ticks (Tick)
board.cache_hierarchy.l1dcaches0.SwapReq.mshrMissRate::processor.cores0.core.data     0.485926                       # mshr miss rate for SwapReq accesses (Ratio)
board.cache_hierarchy.l1dcaches0.SwapReq.mshrMissRate::total     0.485926                       # mshr miss rate for SwapReq accesses (Ratio)
board.cache_hierarchy.l1dcaches0.SwapReq.avgMshrMissLatency::processor.cores0.core.data 11246.901073                       # average SwapReq mshr miss latency ((Tick/Count))
board.cache_hierarchy.l1dcaches0.SwapReq.avgMshrMissLatency::total 11246.901073                       # average SwapReq mshr miss latency ((Tick/Count))
board.cache_hierarchy.l1dcaches0.WriteReq.hits::processor.cores0.core.data      1582607                       # number of WriteReq hits (Count)
board.cache_hierarchy.l1dcaches0.WriteReq.hits::total      1582607                       # number of WriteReq hits (Count)
board.cache_hierarchy.l1dcaches0.WriteReq.misses::processor.cores0.core.data        79061                       # number of WriteReq misses (Count)
board.cache_hierarchy.l1dcaches0.WriteReq.misses::total        79061                       # number of WriteReq misses (Count)
board.cache_hierarchy.l1dcaches0.WriteReq.missLatency::processor.cores0.core.data   1086865249                       # number of WriteReq miss ticks (Tick)
board.cache_hierarchy.l1dcaches0.WriteReq.missLatency::total   1086865249                       # number of WriteReq miss ticks (Tick)
board.cache_hierarchy.l1dcaches0.WriteReq.accesses::processor.cores0.core.data      1661668                       # number of WriteReq accesses(hits+misses) (Count)
board.cache_hierarchy.l1dcaches0.WriteReq.accesses::total      1661668                       # number of WriteReq accesses(hits+misses) (Count)
board.cache_hierarchy.l1dcaches0.WriteReq.missRate::processor.cores0.core.data     0.047579                       # miss rate for WriteReq accesses (Ratio)
board.cache_hierarchy.l1dcaches0.WriteReq.missRate::total     0.047579                       # miss rate for WriteReq accesses (Ratio)
board.cache_hierarchy.l1dcaches0.WriteReq.avgMissLatency::processor.cores0.core.data 13747.173056                       # average WriteReq miss latency ((Tick/Count))
board.cache_hierarchy.l1dcaches0.WriteReq.avgMissLatency::total 13747.173056                       # average WriteReq miss latency ((Tick/Count))
board.cache_hierarchy.l1dcaches0.WriteReq.mshrHits::processor.cores0.core.data        49514                       # number of WriteReq MSHR hits (Count)
board.cache_hierarchy.l1dcaches0.WriteReq.mshrHits::total        49514                       # number of WriteReq MSHR hits (Count)
board.cache_hierarchy.l1dcaches0.WriteReq.mshrMisses::processor.cores0.core.data        29547                       # number of WriteReq MSHR misses (Count)
board.cache_hierarchy.l1dcaches0.WriteReq.mshrMisses::total        29547                       # number of WriteReq MSHR misses (Count)
board.cache_hierarchy.l1dcaches0.WriteReq.mshrMissLatency::processor.cores0.core.data    430798000                       # number of WriteReq MSHR miss ticks (Tick)
board.cache_hierarchy.l1dcaches0.WriteReq.mshrMissLatency::total    430798000                       # number of WriteReq MSHR miss ticks (Tick)
board.cache_hierarchy.l1dcaches0.WriteReq.mshrMissRate::processor.cores0.core.data     0.017782                       # mshr miss rate for WriteReq accesses (Ratio)
board.cache_hierarchy.l1dcaches0.WriteReq.mshrMissRate::total     0.017782                       # mshr miss rate for WriteReq accesses (Ratio)
board.cache_hierarchy.l1dcaches0.WriteReq.avgMshrMissLatency::processor.cores0.core.data 14580.092734                       # average WriteReq mshr miss latency ((Tick/Count))
board.cache_hierarchy.l1dcaches0.WriteReq.avgMshrMissLatency::total 14580.092734                       # average WriteReq mshr miss latency ((Tick/Count))
board.cache_hierarchy.l1dcaches0.power_state.pwrStateResidencyTicks::UNDEFINED  19522456750                       # Cumulative time (in ticks) in various power states (Tick)
board.cache_hierarchy.l1dcaches0.prefetcher.demandMshrMisses        67912                       # demands not covered by prefetchs (Count)
board.cache_hierarchy.l1dcaches0.prefetcher.pfIssued       135231                       # number of hwpf issued (Count)
board.cache_hierarchy.l1dcaches0.prefetcher.pfUnused         4911                       # number of HardPF blocks evicted w/o reference (Count)
board.cache_hierarchy.l1dcaches0.prefetcher.pfUseful        39438                       # number of useful prefetch (Count)
board.cache_hierarchy.l1dcaches0.prefetcher.pfUsefulButMiss        24274                       # number of hit on prefetch but cache block is not in an usable state (Count)
board.cache_hierarchy.l1dcaches0.prefetcher.accuracy     0.291634                       # accuracy of the prefetcher (Count)
board.cache_hierarchy.l1dcaches0.prefetcher.coverage     0.367378                       # coverage brought by this prefetcher (Count)
board.cache_hierarchy.l1dcaches0.prefetcher.pfHitInCache        80578                       # number of prefetches hitting in cache (Count)
board.cache_hierarchy.l1dcaches0.prefetcher.pfHitInMSHR        33708                       # number of prefetches hitting in a MSHR (Count)
board.cache_hierarchy.l1dcaches0.prefetcher.pfHitInWB            0                       # number of prefetches hit in the Write Buffer (Count)
board.cache_hierarchy.l1dcaches0.prefetcher.pfLate       114286                       # number of late prefetches (hitting in cache, MSHR or WB) (Count)
board.cache_hierarchy.l1dcaches0.prefetcher.pfIdentified       179884                       # number of prefetch candidates identified (Count)
board.cache_hierarchy.l1dcaches0.prefetcher.pfBufferHit        39555                       # number of redundant prefetches already in prefetch queue (Count)
board.cache_hierarchy.l1dcaches0.prefetcher.pfInCache            0                       # number of redundant prefetches already in cache/mshr dropped (Count)
board.cache_hierarchy.l1dcaches0.prefetcher.pfRemovedDemand           93                       # number of prefetches dropped due to a demand for the same address (Count)
board.cache_hierarchy.l1dcaches0.prefetcher.pfRemovedFull            0                       # number of prefetches dropped due to prefetch queue size (Count)
board.cache_hierarchy.l1dcaches0.prefetcher.pfSpanPage        16648                       # number of prefetches that crossed the page (Count)
board.cache_hierarchy.l1dcaches0.prefetcher.pfUsefulSpanPage         4776                       # number of prefetches that is useful and crossed the page (Count)
board.cache_hierarchy.l1dcaches0.prefetcher.clk_domain.clock          250                       # Clock period in ticks (Tick)
board.cache_hierarchy.l1dcaches0.prefetcher.clk_domain.voltage_domain.voltage            1                       # Voltage in Volts (Volt)
board.cache_hierarchy.l1dcaches0.prefetcher.power_state.pwrStateResidencyTicks::UNDEFINED  19522456750                       # Cumulative time (in ticks) in various power states (Tick)
board.cache_hierarchy.l1dcaches0.tags.tagsInUse   507.995150                       # Average ticks per tags in use ((Tick/Count))
board.cache_hierarchy.l1dcaches0.tags.totalRefs      8991918                       # Total number of references to valid blocks. (Count)
board.cache_hierarchy.l1dcaches0.tags.sampledRefs        97551                       # Sample count of references to valid blocks. (Count)
board.cache_hierarchy.l1dcaches0.tags.avgRefs    92.176585                       # Average number of references to valid blocks. ((Count/Count))
board.cache_hierarchy.l1dcaches0.tags.warmupTick       189250                       # The tick when the warmup percentage was hit. (Tick)
board.cache_hierarchy.l1dcaches0.tags.occupancies::cache_hierarchy.l1dcaches0.prefetcher   132.164436                       # Average occupied blocks per tick, per requestor ((Count/Tick))
board.cache_hierarchy.l1dcaches0.tags.occupancies::processor.cores0.core.data   375.830714                       # Average occupied blocks per tick, per requestor ((Count/Tick))
board.cache_hierarchy.l1dcaches0.tags.avgOccs::cache_hierarchy.l1dcaches0.prefetcher     0.258134                       # Average percentage of cache occupancy ((Ratio/Tick))
board.cache_hierarchy.l1dcaches0.tags.avgOccs::processor.cores0.core.data     0.734044                       # Average percentage of cache occupancy ((Ratio/Tick))
board.cache_hierarchy.l1dcaches0.tags.avgOccs::total     0.992178                       # Average percentage of cache occupancy ((Ratio/Tick))
board.cache_hierarchy.l1dcaches0.tags.occupanciesTaskId::1022           41                       # Occupied blocks per task id (Count)
board.cache_hierarchy.l1dcaches0.tags.occupanciesTaskId::1024          471                       # Occupied blocks per task id (Count)
board.cache_hierarchy.l1dcaches0.tags.ageTaskId_1022::0           19                       # Occupied blocks per task id, per block age (Count)
board.cache_hierarchy.l1dcaches0.tags.ageTaskId_1022::1           11                       # Occupied blocks per task id, per block age (Count)
board.cache_hierarchy.l1dcaches0.tags.ageTaskId_1022::2           11                       # Occupied blocks per task id, per block age (Count)
board.cache_hierarchy.l1dcaches0.tags.ageTaskId_1024::0          186                       # Occupied blocks per task id, per block age (Count)
board.cache_hierarchy.l1dcaches0.tags.ageTaskId_1024::1          170                       # Occupied blocks per task id, per block age (Count)
board.cache_hierarchy.l1dcaches0.tags.ageTaskId_1024::2          115                       # Occupied blocks per task id, per block age (Count)
board.cache_hierarchy.l1dcaches0.tags.ratioOccsTaskId::1022     0.080078                       # Ratio of occupied blocks and all blocks, per task id (Ratio)
board.cache_hierarchy.l1dcaches0.tags.ratioOccsTaskId::1024     0.919922                       # Ratio of occupied blocks and all blocks, per task id (Ratio)
board.cache_hierarchy.l1dcaches0.tags.tagAccesses     72424279                       # Number of tag accesses (Count)
board.cache_hierarchy.l1dcaches0.tags.dataAccesses     72424279                       # Number of data accesses (Count)
board.cache_hierarchy.l1dcaches0.tags.power_state.pwrStateResidencyTicks::UNDEFINED  19522456750                       # Cumulative time (in ticks) in various power states (Tick)
board.cache_hierarchy.l1dcaches1.demandHits::processor.cores1.core.data      7117004                       # number of demand (read+write) hits (Count)
board.cache_hierarchy.l1dcaches1.demandHits::total      7117004                       # number of demand (read+write) hits (Count)
board.cache_hierarchy.l1dcaches1.overallHits::processor.cores1.core.data      7117004                       # number of overall hits (Count)
board.cache_hierarchy.l1dcaches1.overallHits::total      7117004                       # number of overall hits (Count)
board.cache_hierarchy.l1dcaches1.demandMisses::processor.cores1.core.data       148691                       # number of demand (read+write) misses (Count)
board.cache_hierarchy.l1dcaches1.demandMisses::total       148691                       # number of demand (read+write) misses (Count)
board.cache_hierarchy.l1dcaches1.overallMisses::processor.cores1.core.data       148691                       # number of overall misses (Count)
board.cache_hierarchy.l1dcaches1.overallMisses::total       148691                       # number of overall misses (Count)
board.cache_hierarchy.l1dcaches1.demandMissLatency::processor.cores1.core.data   1300621739                       # number of demand (read+write) miss ticks (Tick)
board.cache_hierarchy.l1dcaches1.demandMissLatency::total   1300621739                       # number of demand (read+write) miss ticks (Tick)
board.cache_hierarchy.l1dcaches1.overallMissLatency::processor.cores1.core.data   1300621739                       # number of overall miss ticks (Tick)
board.cache_hierarchy.l1dcaches1.overallMissLatency::total   1300621739                       # number of overall miss ticks (Tick)
board.cache_hierarchy.l1dcaches1.demandAccesses::processor.cores1.core.data      7265695                       # number of demand (read+write) accesses (Count)
board.cache_hierarchy.l1dcaches1.demandAccesses::total      7265695                       # number of demand (read+write) accesses (Count)
board.cache_hierarchy.l1dcaches1.overallAccesses::processor.cores1.core.data      7265695                       # number of overall (read+write) accesses (Count)
board.cache_hierarchy.l1dcaches1.overallAccesses::total      7265695                       # number of overall (read+write) accesses (Count)
board.cache_hierarchy.l1dcaches1.demandMissRate::processor.cores1.core.data     0.020465                       # miss rate for demand accesses (Ratio)
board.cache_hierarchy.l1dcaches1.demandMissRate::total     0.020465                       # miss rate for demand accesses (Ratio)
board.cache_hierarchy.l1dcaches1.overallMissRate::processor.cores1.core.data     0.020465                       # miss rate for overall accesses (Ratio)
board.cache_hierarchy.l1dcaches1.overallMissRate::total     0.020465                       # miss rate for overall accesses (Ratio)
board.cache_hierarchy.l1dcaches1.demandAvgMissLatency::processor.cores1.core.data  8747.145012                       # average overall miss latency in ticks ((Tick/Count))
board.cache_hierarchy.l1dcaches1.demandAvgMissLatency::total  8747.145012                       # average overall miss latency in ticks ((Tick/Count))
board.cache_hierarchy.l1dcaches1.overallAvgMissLatency::processor.cores1.core.data  8747.145012                       # average overall miss latency ((Tick/Count))
board.cache_hierarchy.l1dcaches1.overallAvgMissLatency::total  8747.145012                       # average overall miss latency ((Tick/Count))
board.cache_hierarchy.l1dcaches1.blockedCycles::no_mshrs            0                       # number of cycles access was blocked (Cycle)
board.cache_hierarchy.l1dcaches1.blockedCycles::no_targets         9640                       # number of cycles access was blocked (Cycle)
board.cache_hierarchy.l1dcaches1.blockedCauses::no_mshrs            0                       # number of times access was blocked (Count)
board.cache_hierarchy.l1dcaches1.blockedCauses::no_targets          305                       # number of times access was blocked (Count)
board.cache_hierarchy.l1dcaches1.avgBlocked::no_mshrs          nan                       # average number of cycles each access was blocked ((Cycle/Count))
board.cache_hierarchy.l1dcaches1.avgBlocked::no_targets    31.606557                       # average number of cycles each access was blocked ((Cycle/Count))
board.cache_hierarchy.l1dcaches1.writebacks::writebacks        32708                       # number of writebacks (Count)
board.cache_hierarchy.l1dcaches1.writebacks::total        32708                       # number of writebacks (Count)
board.cache_hierarchy.l1dcaches1.demandMshrHits::processor.cores1.core.data        87043                       # number of demand (read+write) MSHR hits (Count)
board.cache_hierarchy.l1dcaches1.demandMshrHits::total        87043                       # number of demand (read+write) MSHR hits (Count)
board.cache_hierarchy.l1dcaches1.overallMshrHits::processor.cores1.core.data        87043                       # number of overall MSHR hits (Count)
board.cache_hierarchy.l1dcaches1.overallMshrHits::total        87043                       # number of overall MSHR hits (Count)
board.cache_hierarchy.l1dcaches1.demandMshrMisses::processor.cores1.core.data        61648                       # number of demand (read+write) MSHR misses (Count)
board.cache_hierarchy.l1dcaches1.demandMshrMisses::total        61648                       # number of demand (read+write) MSHR misses (Count)
board.cache_hierarchy.l1dcaches1.overallMshrMisses::cache_hierarchy.l1dcaches1.prefetcher        18086                       # number of overall MSHR misses (Count)
board.cache_hierarchy.l1dcaches1.overallMshrMisses::processor.cores1.core.data        61648                       # number of overall MSHR misses (Count)
board.cache_hierarchy.l1dcaches1.overallMshrMisses::total        79734                       # number of overall MSHR misses (Count)
board.cache_hierarchy.l1dcaches1.demandMshrMissLatency::processor.cores1.core.data    592903000                       # number of demand (read+write) MSHR miss ticks (Tick)
board.cache_hierarchy.l1dcaches1.demandMshrMissLatency::total    592903000                       # number of demand (read+write) MSHR miss ticks (Tick)
board.cache_hierarchy.l1dcaches1.overallMshrMissLatency::cache_hierarchy.l1dcaches1.prefetcher    173390007                       # number of overall MSHR miss ticks (Tick)
board.cache_hierarchy.l1dcaches1.overallMshrMissLatency::processor.cores1.core.data    592903000                       # number of overall MSHR miss ticks (Tick)
board.cache_hierarchy.l1dcaches1.overallMshrMissLatency::total    766293007                       # number of overall MSHR miss ticks (Tick)
board.cache_hierarchy.l1dcaches1.demandMshrMissRate::processor.cores1.core.data     0.008485                       # mshr miss ratio for demand accesses (Ratio)
board.cache_hierarchy.l1dcaches1.demandMshrMissRate::total     0.008485                       # mshr miss ratio for demand accesses (Ratio)
board.cache_hierarchy.l1dcaches1.overallMshrMissRate::cache_hierarchy.l1dcaches1.prefetcher          inf                       # mshr miss ratio for overall accesses (Ratio)
board.cache_hierarchy.l1dcaches1.overallMshrMissRate::processor.cores1.core.data     0.008485                       # mshr miss ratio for overall accesses (Ratio)
board.cache_hierarchy.l1dcaches1.overallMshrMissRate::total     0.010974                       # mshr miss ratio for overall accesses (Ratio)
board.cache_hierarchy.l1dcaches1.demandAvgMshrMissLatency::processor.cores1.core.data  9617.554503                       # average overall mshr miss latency ((Tick/Count))
board.cache_hierarchy.l1dcaches1.demandAvgMshrMissLatency::total  9617.554503                       # average overall mshr miss latency ((Tick/Count))
board.cache_hierarchy.l1dcaches1.overallAvgMshrMissLatency::cache_hierarchy.l1dcaches1.prefetcher  9586.973737                       # average overall mshr miss latency ((Tick/Count))
board.cache_hierarchy.l1dcaches1.overallAvgMshrMissLatency::processor.cores1.core.data  9617.554503                       # average overall mshr miss latency ((Tick/Count))
board.cache_hierarchy.l1dcaches1.overallAvgMshrMissLatency::total  9610.617892                       # average overall mshr miss latency ((Tick/Count))
board.cache_hierarchy.l1dcaches1.replacements        56896                       # number of replacements (Count)
board.cache_hierarchy.l1dcaches1.HardPFReq.mshrMisses::cache_hierarchy.l1dcaches1.prefetcher        18086                       # number of HardPFReq MSHR misses (Count)
board.cache_hierarchy.l1dcaches1.HardPFReq.mshrMisses::total        18086                       # number of HardPFReq MSHR misses (Count)
board.cache_hierarchy.l1dcaches1.HardPFReq.mshrMissLatency::cache_hierarchy.l1dcaches1.prefetcher    173390007                       # number of HardPFReq MSHR miss ticks (Tick)
board.cache_hierarchy.l1dcaches1.HardPFReq.mshrMissLatency::total    173390007                       # number of HardPFReq MSHR miss ticks (Tick)
board.cache_hierarchy.l1dcaches1.HardPFReq.mshrMissRate::cache_hierarchy.l1dcaches1.prefetcher          inf                       # mshr miss rate for HardPFReq accesses (Ratio)
board.cache_hierarchy.l1dcaches1.HardPFReq.mshrMissRate::total          inf                       # mshr miss rate for HardPFReq accesses (Ratio)
board.cache_hierarchy.l1dcaches1.HardPFReq.avgMshrMissLatency::cache_hierarchy.l1dcaches1.prefetcher  9586.973737                       # average HardPFReq mshr miss latency ((Tick/Count))
board.cache_hierarchy.l1dcaches1.HardPFReq.avgMshrMissLatency::total  9586.973737                       # average HardPFReq mshr miss latency ((Tick/Count))
board.cache_hierarchy.l1dcaches1.LoadLockedReq.hits::processor.cores1.core.data         1738                       # number of LoadLockedReq hits (Count)
board.cache_hierarchy.l1dcaches1.LoadLockedReq.hits::total         1738                       # number of LoadLockedReq hits (Count)
board.cache_hierarchy.l1dcaches1.LoadLockedReq.misses::processor.cores1.core.data          731                       # number of LoadLockedReq misses (Count)
board.cache_hierarchy.l1dcaches1.LoadLockedReq.misses::total          731                       # number of LoadLockedReq misses (Count)
board.cache_hierarchy.l1dcaches1.LoadLockedReq.missLatency::processor.cores1.core.data      7995750                       # number of LoadLockedReq miss ticks (Tick)
board.cache_hierarchy.l1dcaches1.LoadLockedReq.missLatency::total      7995750                       # number of LoadLockedReq miss ticks (Tick)
board.cache_hierarchy.l1dcaches1.LoadLockedReq.accesses::processor.cores1.core.data         2469                       # number of LoadLockedReq accesses(hits+misses) (Count)
board.cache_hierarchy.l1dcaches1.LoadLockedReq.accesses::total         2469                       # number of LoadLockedReq accesses(hits+misses) (Count)
board.cache_hierarchy.l1dcaches1.LoadLockedReq.missRate::processor.cores1.core.data     0.296071                       # miss rate for LoadLockedReq accesses (Ratio)
board.cache_hierarchy.l1dcaches1.LoadLockedReq.missRate::total     0.296071                       # miss rate for LoadLockedReq accesses (Ratio)
board.cache_hierarchy.l1dcaches1.LoadLockedReq.avgMissLatency::processor.cores1.core.data 10938.098495                       # average LoadLockedReq miss latency ((Tick/Count))
board.cache_hierarchy.l1dcaches1.LoadLockedReq.avgMissLatency::total 10938.098495                       # average LoadLockedReq miss latency ((Tick/Count))
board.cache_hierarchy.l1dcaches1.LoadLockedReq.mshrHits::processor.cores1.core.data          576                       # number of LoadLockedReq MSHR hits (Count)
board.cache_hierarchy.l1dcaches1.LoadLockedReq.mshrHits::total          576                       # number of LoadLockedReq MSHR hits (Count)
board.cache_hierarchy.l1dcaches1.LoadLockedReq.mshrMisses::processor.cores1.core.data          155                       # number of LoadLockedReq MSHR misses (Count)
board.cache_hierarchy.l1dcaches1.LoadLockedReq.mshrMisses::total          155                       # number of LoadLockedReq MSHR misses (Count)
board.cache_hierarchy.l1dcaches1.LoadLockedReq.mshrMissLatency::processor.cores1.core.data      1690500                       # number of LoadLockedReq MSHR miss ticks (Tick)
board.cache_hierarchy.l1dcaches1.LoadLockedReq.mshrMissLatency::total      1690500                       # number of LoadLockedReq MSHR miss ticks (Tick)
board.cache_hierarchy.l1dcaches1.LoadLockedReq.mshrMissRate::processor.cores1.core.data     0.062778                       # mshr miss rate for LoadLockedReq accesses (Ratio)
board.cache_hierarchy.l1dcaches1.LoadLockedReq.mshrMissRate::total     0.062778                       # mshr miss rate for LoadLockedReq accesses (Ratio)
board.cache_hierarchy.l1dcaches1.LoadLockedReq.avgMshrMissLatency::processor.cores1.core.data 10906.451613                       # average LoadLockedReq mshr miss latency ((Tick/Count))
board.cache_hierarchy.l1dcaches1.LoadLockedReq.avgMshrMissLatency::total 10906.451613                       # average LoadLockedReq mshr miss latency ((Tick/Count))
board.cache_hierarchy.l1dcaches1.ReadReq.hits::processor.cores1.core.data      5950864                       # number of ReadReq hits (Count)
board.cache_hierarchy.l1dcaches1.ReadReq.hits::total      5950864                       # number of ReadReq hits (Count)
board.cache_hierarchy.l1dcaches1.ReadReq.misses::processor.cores1.core.data        81295                       # number of ReadReq misses (Count)
board.cache_hierarchy.l1dcaches1.ReadReq.misses::total        81295                       # number of ReadReq misses (Count)
board.cache_hierarchy.l1dcaches1.ReadReq.missLatency::processor.cores1.core.data    476134750                       # number of ReadReq miss ticks (Tick)
board.cache_hierarchy.l1dcaches1.ReadReq.missLatency::total    476134750                       # number of ReadReq miss ticks (Tick)
board.cache_hierarchy.l1dcaches1.ReadReq.accesses::processor.cores1.core.data      6032159                       # number of ReadReq accesses(hits+misses) (Count)
board.cache_hierarchy.l1dcaches1.ReadReq.accesses::total      6032159                       # number of ReadReq accesses(hits+misses) (Count)
board.cache_hierarchy.l1dcaches1.ReadReq.missRate::processor.cores1.core.data     0.013477                       # miss rate for ReadReq accesses (Ratio)
board.cache_hierarchy.l1dcaches1.ReadReq.missRate::total     0.013477                       # miss rate for ReadReq accesses (Ratio)
board.cache_hierarchy.l1dcaches1.ReadReq.avgMissLatency::processor.cores1.core.data  5856.876192                       # average ReadReq miss latency ((Tick/Count))
board.cache_hierarchy.l1dcaches1.ReadReq.avgMissLatency::total  5856.876192                       # average ReadReq miss latency ((Tick/Count))
board.cache_hierarchy.l1dcaches1.ReadReq.mshrHits::processor.cores1.core.data        46063                       # number of ReadReq MSHR hits (Count)
board.cache_hierarchy.l1dcaches1.ReadReq.mshrHits::total        46063                       # number of ReadReq MSHR hits (Count)
board.cache_hierarchy.l1dcaches1.ReadReq.mshrMisses::processor.cores1.core.data        35232                       # number of ReadReq MSHR misses (Count)
board.cache_hierarchy.l1dcaches1.ReadReq.mshrMisses::total        35232                       # number of ReadReq MSHR misses (Count)
board.cache_hierarchy.l1dcaches1.ReadReq.mshrMissLatency::processor.cores1.core.data    242416500                       # number of ReadReq MSHR miss ticks (Tick)
board.cache_hierarchy.l1dcaches1.ReadReq.mshrMissLatency::total    242416500                       # number of ReadReq MSHR miss ticks (Tick)
board.cache_hierarchy.l1dcaches1.ReadReq.mshrMissRate::processor.cores1.core.data     0.005841                       # mshr miss rate for ReadReq accesses (Ratio)
board.cache_hierarchy.l1dcaches1.ReadReq.mshrMissRate::total     0.005841                       # mshr miss rate for ReadReq accesses (Ratio)
board.cache_hierarchy.l1dcaches1.ReadReq.avgMshrMissLatency::processor.cores1.core.data  6880.577316                       # average ReadReq mshr miss latency ((Tick/Count))
board.cache_hierarchy.l1dcaches1.ReadReq.avgMshrMissLatency::total  6880.577316                       # average ReadReq mshr miss latency ((Tick/Count))
board.cache_hierarchy.l1dcaches1.StoreCondFailReq.missLatency::processor.cores1.core.data        19750                       # number of StoreCondFailReq miss ticks (Tick)
board.cache_hierarchy.l1dcaches1.StoreCondFailReq.missLatency::total        19750                       # number of StoreCondFailReq miss ticks (Tick)
board.cache_hierarchy.l1dcaches1.StoreCondFailReq.avgMissLatency::processor.cores1.core.data          inf                       # average StoreCondFailReq miss latency ((Tick/Count))
board.cache_hierarchy.l1dcaches1.StoreCondFailReq.avgMissLatency::total          inf                       # average StoreCondFailReq miss latency ((Tick/Count))
board.cache_hierarchy.l1dcaches1.StoreCondFailReq.mshrMissLatency::processor.cores1.core.data        19500                       # number of StoreCondFailReq MSHR miss ticks (Tick)
board.cache_hierarchy.l1dcaches1.StoreCondFailReq.mshrMissLatency::total        19500                       # number of StoreCondFailReq MSHR miss ticks (Tick)
board.cache_hierarchy.l1dcaches1.StoreCondFailReq.avgMshrMissLatency::processor.cores1.core.data          inf                       # average StoreCondFailReq mshr miss latency ((Tick/Count))
board.cache_hierarchy.l1dcaches1.StoreCondFailReq.avgMshrMissLatency::total          inf                       # average StoreCondFailReq mshr miss latency ((Tick/Count))
board.cache_hierarchy.l1dcaches1.StoreCondReq.hits::processor.cores1.core.data          960                       # number of StoreCondReq hits (Count)
board.cache_hierarchy.l1dcaches1.StoreCondReq.hits::total          960                       # number of StoreCondReq hits (Count)
board.cache_hierarchy.l1dcaches1.StoreCondReq.misses::processor.cores1.core.data          733                       # number of StoreCondReq misses (Count)
board.cache_hierarchy.l1dcaches1.StoreCondReq.misses::total          733                       # number of StoreCondReq misses (Count)
board.cache_hierarchy.l1dcaches1.StoreCondReq.missLatency::processor.cores1.core.data      8398000                       # number of StoreCondReq miss ticks (Tick)
board.cache_hierarchy.l1dcaches1.StoreCondReq.missLatency::total      8398000                       # number of StoreCondReq miss ticks (Tick)
board.cache_hierarchy.l1dcaches1.StoreCondReq.accesses::processor.cores1.core.data         1693                       # number of StoreCondReq accesses(hits+misses) (Count)
board.cache_hierarchy.l1dcaches1.StoreCondReq.accesses::total         1693                       # number of StoreCondReq accesses(hits+misses) (Count)
board.cache_hierarchy.l1dcaches1.StoreCondReq.missRate::processor.cores1.core.data     0.432959                       # miss rate for StoreCondReq accesses (Ratio)
board.cache_hierarchy.l1dcaches1.StoreCondReq.missRate::total     0.432959                       # miss rate for StoreCondReq accesses (Ratio)
board.cache_hierarchy.l1dcaches1.StoreCondReq.avgMissLatency::processor.cores1.core.data 11457.025921                       # average StoreCondReq miss latency ((Tick/Count))
board.cache_hierarchy.l1dcaches1.StoreCondReq.avgMissLatency::total 11457.025921                       # average StoreCondReq miss latency ((Tick/Count))
board.cache_hierarchy.l1dcaches1.StoreCondReq.mshrMisses::processor.cores1.core.data          733                       # number of StoreCondReq MSHR misses (Count)
board.cache_hierarchy.l1dcaches1.StoreCondReq.mshrMisses::total          733                       # number of StoreCondReq MSHR misses (Count)
board.cache_hierarchy.l1dcaches1.StoreCondReq.mshrMissLatency::processor.cores1.core.data      8215000                       # number of StoreCondReq MSHR miss ticks (Tick)
board.cache_hierarchy.l1dcaches1.StoreCondReq.mshrMissLatency::total      8215000                       # number of StoreCondReq MSHR miss ticks (Tick)
board.cache_hierarchy.l1dcaches1.StoreCondReq.mshrMissRate::processor.cores1.core.data     0.432959                       # mshr miss rate for StoreCondReq accesses (Ratio)
board.cache_hierarchy.l1dcaches1.StoreCondReq.mshrMissRate::total     0.432959                       # mshr miss rate for StoreCondReq accesses (Ratio)
board.cache_hierarchy.l1dcaches1.StoreCondReq.avgMshrMissLatency::processor.cores1.core.data 11207.366985                       # average StoreCondReq mshr miss latency ((Tick/Count))
board.cache_hierarchy.l1dcaches1.StoreCondReq.avgMshrMissLatency::total 11207.366985                       # average StoreCondReq mshr miss latency ((Tick/Count))
board.cache_hierarchy.l1dcaches1.SwapReq.hits::processor.cores1.core.data        17198                       # number of SwapReq hits (Count)
board.cache_hierarchy.l1dcaches1.SwapReq.hits::total        17198                       # number of SwapReq hits (Count)
board.cache_hierarchy.l1dcaches1.SwapReq.misses::processor.cores1.core.data        16857                       # number of SwapReq misses (Count)
board.cache_hierarchy.l1dcaches1.SwapReq.misses::total        16857                       # number of SwapReq misses (Count)
board.cache_hierarchy.l1dcaches1.SwapReq.missLatency::processor.cores1.core.data    193587000                       # number of SwapReq miss ticks (Tick)
board.cache_hierarchy.l1dcaches1.SwapReq.missLatency::total    193587000                       # number of SwapReq miss ticks (Tick)
board.cache_hierarchy.l1dcaches1.SwapReq.accesses::processor.cores1.core.data        34055                       # number of SwapReq accesses(hits+misses) (Count)
board.cache_hierarchy.l1dcaches1.SwapReq.accesses::total        34055                       # number of SwapReq accesses(hits+misses) (Count)
board.cache_hierarchy.l1dcaches1.SwapReq.missRate::processor.cores1.core.data     0.494993                       # miss rate for SwapReq accesses (Ratio)
board.cache_hierarchy.l1dcaches1.SwapReq.missRate::total     0.494993                       # miss rate for SwapReq accesses (Ratio)
board.cache_hierarchy.l1dcaches1.SwapReq.avgMissLatency::processor.cores1.core.data 11484.071899                       # average SwapReq miss latency ((Tick/Count))
board.cache_hierarchy.l1dcaches1.SwapReq.avgMissLatency::total 11484.071899                       # average SwapReq miss latency ((Tick/Count))
board.cache_hierarchy.l1dcaches1.SwapReq.mshrHits::processor.cores1.core.data            2                       # number of SwapReq MSHR hits (Count)
board.cache_hierarchy.l1dcaches1.SwapReq.mshrHits::total            2                       # number of SwapReq MSHR hits (Count)
board.cache_hierarchy.l1dcaches1.SwapReq.mshrMisses::processor.cores1.core.data        16855                       # number of SwapReq MSHR misses (Count)
board.cache_hierarchy.l1dcaches1.SwapReq.mshrMisses::total        16855                       # number of SwapReq MSHR misses (Count)
board.cache_hierarchy.l1dcaches1.SwapReq.mshrMissLatency::processor.cores1.core.data    189350250                       # number of SwapReq MSHR miss ticks (Tick)
board.cache_hierarchy.l1dcaches1.SwapReq.mshrMissLatency::total    189350250                       # number of SwapReq MSHR miss ticks (Tick)
board.cache_hierarchy.l1dcaches1.SwapReq.mshrMissRate::processor.cores1.core.data     0.494935                       # mshr miss rate for SwapReq accesses (Ratio)
board.cache_hierarchy.l1dcaches1.SwapReq.mshrMissRate::total     0.494935                       # mshr miss rate for SwapReq accesses (Ratio)
board.cache_hierarchy.l1dcaches1.SwapReq.avgMshrMissLatency::processor.cores1.core.data 11234.070009                       # average SwapReq mshr miss latency ((Tick/Count))
board.cache_hierarchy.l1dcaches1.SwapReq.avgMshrMissLatency::total 11234.070009                       # average SwapReq mshr miss latency ((Tick/Count))
board.cache_hierarchy.l1dcaches1.WriteReq.hits::processor.cores1.core.data      1166140                       # number of WriteReq hits (Count)
board.cache_hierarchy.l1dcaches1.WriteReq.hits::total      1166140                       # number of WriteReq hits (Count)
board.cache_hierarchy.l1dcaches1.WriteReq.misses::processor.cores1.core.data        67396                       # number of WriteReq misses (Count)
board.cache_hierarchy.l1dcaches1.WriteReq.misses::total        67396                       # number of WriteReq misses (Count)
board.cache_hierarchy.l1dcaches1.WriteReq.missLatency::processor.cores1.core.data    824486989                       # number of WriteReq miss ticks (Tick)
board.cache_hierarchy.l1dcaches1.WriteReq.missLatency::total    824486989                       # number of WriteReq miss ticks (Tick)
board.cache_hierarchy.l1dcaches1.WriteReq.accesses::processor.cores1.core.data      1233536                       # number of WriteReq accesses(hits+misses) (Count)
board.cache_hierarchy.l1dcaches1.WriteReq.accesses::total      1233536                       # number of WriteReq accesses(hits+misses) (Count)
board.cache_hierarchy.l1dcaches1.WriteReq.missRate::processor.cores1.core.data     0.054636                       # miss rate for WriteReq accesses (Ratio)
board.cache_hierarchy.l1dcaches1.WriteReq.missRate::total     0.054636                       # miss rate for WriteReq accesses (Ratio)
board.cache_hierarchy.l1dcaches1.WriteReq.avgMissLatency::processor.cores1.core.data 12233.470666                       # average WriteReq miss latency ((Tick/Count))
board.cache_hierarchy.l1dcaches1.WriteReq.avgMissLatency::total 12233.470666                       # average WriteReq miss latency ((Tick/Count))
board.cache_hierarchy.l1dcaches1.WriteReq.mshrHits::processor.cores1.core.data        40980                       # number of WriteReq MSHR hits (Count)
board.cache_hierarchy.l1dcaches1.WriteReq.mshrHits::total        40980                       # number of WriteReq MSHR hits (Count)
board.cache_hierarchy.l1dcaches1.WriteReq.mshrMisses::processor.cores1.core.data        26416                       # number of WriteReq MSHR misses (Count)
board.cache_hierarchy.l1dcaches1.WriteReq.mshrMisses::total        26416                       # number of WriteReq MSHR misses (Count)
board.cache_hierarchy.l1dcaches1.WriteReq.mshrMissLatency::processor.cores1.core.data    350486500                       # number of WriteReq MSHR miss ticks (Tick)
board.cache_hierarchy.l1dcaches1.WriteReq.mshrMissLatency::total    350486500                       # number of WriteReq MSHR miss ticks (Tick)
board.cache_hierarchy.l1dcaches1.WriteReq.mshrMissRate::processor.cores1.core.data     0.021415                       # mshr miss rate for WriteReq accesses (Ratio)
board.cache_hierarchy.l1dcaches1.WriteReq.mshrMissRate::total     0.021415                       # mshr miss rate for WriteReq accesses (Ratio)
board.cache_hierarchy.l1dcaches1.WriteReq.avgMshrMissLatency::processor.cores1.core.data 13267.962598                       # average WriteReq mshr miss latency ((Tick/Count))
board.cache_hierarchy.l1dcaches1.WriteReq.avgMshrMissLatency::total 13267.962598                       # average WriteReq mshr miss latency ((Tick/Count))
board.cache_hierarchy.l1dcaches1.power_state.pwrStateResidencyTicks::UNDEFINED  19522456750                       # Cumulative time (in ticks) in various power states (Tick)
board.cache_hierarchy.l1dcaches1.prefetcher.demandMshrMisses        61648                       # demands not covered by prefetchs (Count)
board.cache_hierarchy.l1dcaches1.prefetcher.pfIssued       115877                       # number of hwpf issued (Count)
board.cache_hierarchy.l1dcaches1.prefetcher.pfUnused         3935                       # number of HardPF blocks evicted w/o reference (Count)
board.cache_hierarchy.l1dcaches1.prefetcher.pfUseful        34266                       # number of useful prefetch (Count)
board.cache_hierarchy.l1dcaches1.prefetcher.pfUsefulButMiss        20556                       # number of hit on prefetch but cache block is not in an usable state (Count)
board.cache_hierarchy.l1dcaches1.prefetcher.accuracy     0.295710                       # accuracy of the prefetcher (Count)
board.cache_hierarchy.l1dcaches1.prefetcher.coverage     0.357258                       # coverage brought by this prefetcher (Count)
board.cache_hierarchy.l1dcaches1.prefetcher.pfHitInCache        73412                       # number of prefetches hitting in cache (Count)
board.cache_hierarchy.l1dcaches1.prefetcher.pfHitInMSHR        24379                       # number of prefetches hitting in a MSHR (Count)
board.cache_hierarchy.l1dcaches1.prefetcher.pfHitInWB            0                       # number of prefetches hit in the Write Buffer (Count)
board.cache_hierarchy.l1dcaches1.prefetcher.pfLate        97791                       # number of late prefetches (hitting in cache, MSHR or WB) (Count)
board.cache_hierarchy.l1dcaches1.prefetcher.pfIdentified       141947                       # number of prefetch candidates identified (Count)
board.cache_hierarchy.l1dcaches1.prefetcher.pfBufferHit        23232                       # number of redundant prefetches already in prefetch queue (Count)
board.cache_hierarchy.l1dcaches1.prefetcher.pfInCache            0                       # number of redundant prefetches already in cache/mshr dropped (Count)
board.cache_hierarchy.l1dcaches1.prefetcher.pfRemovedDemand          142                       # number of prefetches dropped due to a demand for the same address (Count)
board.cache_hierarchy.l1dcaches1.prefetcher.pfRemovedFull            0                       # number of prefetches dropped due to prefetch queue size (Count)
board.cache_hierarchy.l1dcaches1.prefetcher.pfSpanPage        12457                       # number of prefetches that crossed the page (Count)
board.cache_hierarchy.l1dcaches1.prefetcher.pfUsefulSpanPage         3444                       # number of prefetches that is useful and crossed the page (Count)
board.cache_hierarchy.l1dcaches1.prefetcher.power_state.pwrStateResidencyTicks::UNDEFINED  19522456750                       # Cumulative time (in ticks) in various power states (Tick)
board.cache_hierarchy.l1dcaches1.tags.tagsInUse   430.800694                       # Average ticks per tags in use ((Tick/Count))
board.cache_hierarchy.l1dcaches1.tags.totalRefs      7266580                       # Total number of references to valid blocks. (Count)
board.cache_hierarchy.l1dcaches1.tags.sampledRefs        87644                       # Sample count of references to valid blocks. (Count)
board.cache_hierarchy.l1dcaches1.tags.avgRefs    82.910182                       # Average number of references to valid blocks. ((Count/Count))
board.cache_hierarchy.l1dcaches1.tags.warmupTick    115551250                       # The tick when the warmup percentage was hit. (Tick)
board.cache_hierarchy.l1dcaches1.tags.occupancies::cache_hierarchy.l1dcaches1.prefetcher    98.863728                       # Average occupied blocks per tick, per requestor ((Count/Tick))
board.cache_hierarchy.l1dcaches1.tags.occupancies::processor.cores1.core.data   331.936966                       # Average occupied blocks per tick, per requestor ((Count/Tick))
board.cache_hierarchy.l1dcaches1.tags.avgOccs::cache_hierarchy.l1dcaches1.prefetcher     0.193093                       # Average percentage of cache occupancy ((Ratio/Tick))
board.cache_hierarchy.l1dcaches1.tags.avgOccs::processor.cores1.core.data     0.648314                       # Average percentage of cache occupancy ((Ratio/Tick))
board.cache_hierarchy.l1dcaches1.tags.avgOccs::total     0.841408                       # Average percentage of cache occupancy ((Ratio/Tick))
board.cache_hierarchy.l1dcaches1.tags.occupanciesTaskId::1022           31                       # Occupied blocks per task id (Count)
board.cache_hierarchy.l1dcaches1.tags.occupanciesTaskId::1024          475                       # Occupied blocks per task id (Count)
board.cache_hierarchy.l1dcaches1.tags.ageTaskId_1022::1           30                       # Occupied blocks per task id, per block age (Count)
board.cache_hierarchy.l1dcaches1.tags.ageTaskId_1022::2            1                       # Occupied blocks per task id, per block age (Count)
board.cache_hierarchy.l1dcaches1.tags.ageTaskId_1024::0            4                       # Occupied blocks per task id, per block age (Count)
board.cache_hierarchy.l1dcaches1.tags.ageTaskId_1024::1          317                       # Occupied blocks per task id, per block age (Count)
board.cache_hierarchy.l1dcaches1.tags.ageTaskId_1024::2          154                       # Occupied blocks per task id, per block age (Count)
board.cache_hierarchy.l1dcaches1.tags.ratioOccsTaskId::1022     0.060547                       # Ratio of occupied blocks and all blocks, per task id (Ratio)
board.cache_hierarchy.l1dcaches1.tags.ratioOccsTaskId::1024     0.927734                       # Ratio of occupied blocks and all blocks, per task id (Ratio)
board.cache_hierarchy.l1dcaches1.tags.tagAccesses     58518940                       # Number of tag accesses (Count)
board.cache_hierarchy.l1dcaches1.tags.dataAccesses     58518940                       # Number of data accesses (Count)
board.cache_hierarchy.l1dcaches1.tags.power_state.pwrStateResidencyTicks::UNDEFINED  19522456750                       # Cumulative time (in ticks) in various power states (Tick)
board.cache_hierarchy.l1icaches0.demandHits::processor.cores0.core.inst      5892335                       # number of demand (read+write) hits (Count)
board.cache_hierarchy.l1icaches0.demandHits::total      5892335                       # number of demand (read+write) hits (Count)
board.cache_hierarchy.l1icaches0.overallHits::processor.cores0.core.inst      5892335                       # number of overall hits (Count)
board.cache_hierarchy.l1icaches0.overallHits::total      5892335                       # number of overall hits (Count)
board.cache_hierarchy.l1icaches0.demandMisses::processor.cores0.core.inst         8559                       # number of demand (read+write) misses (Count)
board.cache_hierarchy.l1icaches0.demandMisses::total         8559                       # number of demand (read+write) misses (Count)
board.cache_hierarchy.l1icaches0.overallMisses::processor.cores0.core.inst         8559                       # number of overall misses (Count)
board.cache_hierarchy.l1icaches0.overallMisses::total         8559                       # number of overall misses (Count)
board.cache_hierarchy.l1icaches0.demandMissLatency::processor.cores0.core.inst    156153750                       # number of demand (read+write) miss ticks (Tick)
board.cache_hierarchy.l1icaches0.demandMissLatency::total    156153750                       # number of demand (read+write) miss ticks (Tick)
board.cache_hierarchy.l1icaches0.overallMissLatency::processor.cores0.core.inst    156153750                       # number of overall miss ticks (Tick)
board.cache_hierarchy.l1icaches0.overallMissLatency::total    156153750                       # number of overall miss ticks (Tick)
board.cache_hierarchy.l1icaches0.demandAccesses::processor.cores0.core.inst      5900894                       # number of demand (read+write) accesses (Count)
board.cache_hierarchy.l1icaches0.demandAccesses::total      5900894                       # number of demand (read+write) accesses (Count)
board.cache_hierarchy.l1icaches0.overallAccesses::processor.cores0.core.inst      5900894                       # number of overall (read+write) accesses (Count)
board.cache_hierarchy.l1icaches0.overallAccesses::total      5900894                       # number of overall (read+write) accesses (Count)
board.cache_hierarchy.l1icaches0.demandMissRate::processor.cores0.core.inst     0.001450                       # miss rate for demand accesses (Ratio)
board.cache_hierarchy.l1icaches0.demandMissRate::total     0.001450                       # miss rate for demand accesses (Ratio)
board.cache_hierarchy.l1icaches0.overallMissRate::processor.cores0.core.inst     0.001450                       # miss rate for overall accesses (Ratio)
board.cache_hierarchy.l1icaches0.overallMissRate::total     0.001450                       # miss rate for overall accesses (Ratio)
[...]
board.processor.cores1.core.fetch.miscStallCycles            2                       # Number of cycles fetch has spent waiting on interrupts, or bad addresses, or out of MSHRs (Cycle)
board.processor.cores1.core.fetch.icacheWaitRetryStallCycles           16                       # Number of stall cycles due to full MSHR (Cycle)
board.processor.cores1.core.fetch.cacheLines      4724126                       # Number of cache lines fetched (Count)
board.processor.cores1.core.fetch.icacheSquashes       619013                       # Number of outstanding Icache misses that were squashed (Count)
board.processor.cores1.core.fetch.nisnDist::samples     60358085                       # Number of instructions fetched each cycle (Total) (Count)
board.processor.cores1.core.fetch.nisnDist::mean     0.637699                       # Number of instructions fetched each cycle (Total) (Count)
board.processor.cores1.core.fetch.nisnDist::stdev     1.305167                       # Number of instructions fetched each cycle (Total) (Count)
board.processor.cores1.core.fetch.nisnDist::underflows            0      0.00%      0.00% # Number of instructions fetched each cycle (Total) (Count)
board.processor.cores1.core.fetch.nisnDist::0     46151722     76.46%     76.46% # Number of instructions fetched each cycle (Total) (Count)
board.processor.cores1.core.fetch.nisnDist::1      3823774      6.34%     82.80% # Number of instructions fetched each cycle (Total) (Count)
board.processor.cores1.core.fetch.nisnDist::2      2732250      4.53%     87.33% # Number of instructions fetched each cycle (Total) (Count)
board.processor.cores1.core.fetch.nisnDist::3      1399330      2.32%     89.64% # Number of instructions fetched each cycle (Total) (Count)
board.processor.cores1.core.fetch.nisnDist::4      6251009     10.36%    100.00% # Number of instructions fetched each cycle (Total) (Count)
board.processor.cores1.core.fetch.nisnDist::overflows            0      0.00%    100.00% # Number of instructions fetched each cycle (Total) (Count)
board.processor.cores1.core.fetch.nisnDist::min_value            0                       # Number of instructions fetched each cycle (Total) (Count)
board.processor.cores1.core.fetch.nisnDist::max_value            4                       # Number of instructions fetched each cycle (Total) (Count)
board.processor.cores1.core.fetch.nisnDist::total     60358085                       # Number of instructions fetched each cycle (Total) (Count)
board.processor.cores1.core.fetchStats0.numInsts     38454144                       # Number of instructions fetched (thread level) (Count)
board.processor.cores1.core.fetchStats0.numOps            0                       # Number of ops (including micro ops) fetched (thread level) (Count)
board.processor.cores1.core.fetchStats0.fetchRate     0.636744                       # Number of inst fetches per cycle ((Count/Cycle))
board.processor.cores1.core.fetchStats0.numBranches     11012261                       # Number of branches fetched (Count)
board.processor.cores1.core.fetchStats0.branchRate     0.182347                       # Number of branch fetches per cycle (Ratio)
board.processor.cores1.core.fetchStats0.icacheStallCycles     41254267                       # ICache total stall cycles (Cycle)
board.processor.cores1.core.fetchStats0.numFetchSuspends            0                       # Number of times Execute suspended instruction fetching (Count)
board.processor.cores1.core.iew.idleCycles            0                       # Number of cycles IEW is idle (Cycle)
board.processor.cores1.core.iew.squashCycles       900765                       # Number of cycles IEW is squashing (Cycle)
board.processor.cores1.core.iew.blockCycles      3689919                       # Number of cycles IEW is blocking (Cycle)
board.processor.cores1.core.iew.unblockCycles       332055                       # Number of cycles IEW is unblocking (Cycle)
board.processor.cores1.core.iew.dispatchedInsts     33738638                       # Number of instructions dispatched to IQ (Count)
board.processor.cores1.core.iew.dispSquashedInsts        21099                       # Number of squashed instructions skipped by dispatch (Count)
board.processor.cores1.core.iew.dispLoadInsts      8023476                       # Number of dispatched load instructions (Count)
board.processor.cores1.core.iew.dispStoreInsts      2774601                       # Number of dispatched store instructions (Count)
board.processor.cores1.core.iew.dispNonSpecInsts        37772                       # Number of dispatched non-speculative instructions (Count)
board.processor.cores1.core.iew.iqFullEvents        19389                       # Number of times the IQ has become full, causing a stall (Count)
board.processor.cores1.core.iew.lsqFullEvents       292970                       # Number of times the LSQ has become full, causing a stall (Count)
board.processor.cores1.core.iew.memOrderViolationEvents         7149                       # Number of memory order violations (Count)
board.processor.cores1.core.iew.predictedTakenIncorrect       390927                       # Number of branches that were predicted taken incorrectly (Count)
board.processor.cores1.core.iew.predictedNotTakenIncorrect       590876                       # Number of branches that were predicted not taken incorrectly (Count)
board.processor.cores1.core.iew.branchMispredicts       981803                       # Number of branch mispredicts detected at execute (Count)
board.processor.cores1.core.iew.instsToCommit     26795521                       # Cumulative count of insts sent to commit (Count)
board.processor.cores1.core.iew.writebackCount     26713895                       # Cumulative count of insts written-back (Count)
board.processor.cores1.core.iew.producerInst     11891441                       # Number of instructions producing a value (Count)
board.processor.cores1.core.iew.consumerInst     19948090                       # Number of instructions consuming a value (Count)
board.processor.cores1.core.iew.wbRate       0.442343                       # Insts written-back per cycle ((Count/Cycle))
board.processor.cores1.core.iew.wbFanout     0.596119                       # Average fanout of values written-back ((Count/Count))
board.processor.cores1.core.lsq0.forwLoads        56533                       # Number of loads that had data forwarded from stores (Count)
board.processor.cores1.core.lsq0.squashedLoads      3148357                       # Number of loads squashed (Count)
board.processor.cores1.core.lsq0.ignoredResponses          222                       # Number of memory responses ignored because the instruction is squashed (Count)
board.processor.cores1.core.lsq0.memOrderViolation         7149                       # Number of memory ordering violations (Count)
board.processor.cores1.core.lsq0.squashedStores      1505305                       # Number of stores squashed (Count)
board.processor.cores1.core.lsq0.rescheduledLoads         1059                       # Number of loads that were rescheduled (Count)
board.processor.cores1.core.lsq0.blockedByCache          259                       # Number of times an access to memory failed due to the cache being blocked (Count)
board.processor.cores1.core.lsq0.loadToUse::samples      4875119                       # Distribution of cycle latency between the first time a load is issued and its completion (Unspecified)
board.processor.cores1.core.lsq0.loadToUse::mean    11.786572                       # Distribution of cycle latency between the first time a load is issued and its completion (Unspecified)
board.processor.cores1.core.lsq0.loadToUse::stdev     2.762169                       # Distribution of cycle latency between the first time a load is issued and its completion (Unspecified)
board.processor.cores1.core.lsq0.loadToUse::0-9        46976      0.96%      0.96% # Distribution of cycle latency between the first time a load is issued and its completion (Unspecified)
board.processor.cores1.core.lsq0.loadToUse::10-19      4773866     97.92%     98.89% # Distribution of cycle latency between the first time a load is issued and its completion (Unspecified)
board.processor.cores1.core.lsq0.loadToUse::20-29        37763      0.77%     99.66% # Distribution of cycle latency between the first time a load is issued and its completion (Unspecified)
board.processor.cores1.core.lsq0.loadToUse::30-39         6682      0.14%     99.80% # Distribution of cycle latency between the first time a load is issued and its completion (Unspecified)
board.processor.cores1.core.lsq0.loadToUse::40-49         8830      0.18%     99.98% # Distribution of cycle latency between the first time a load is issued and its completion (Unspecified)
board.processor.cores1.core.lsq0.loadToUse::50-59          904      0.02%    100.00% # Distribution of cycle latency between the first time a load is issued and its completion (Unspecified)
board.processor.cores1.core.lsq0.loadToUse::60-69           40      0.00%    100.00% # Distribution of cycle latency between the first time a load is issued and its completion (Unspecified)
board.processor.cores1.core.lsq0.loadToUse::70-79            7      0.00%    100.00% # Distribution of cycle latency between the first time a load is issued and its completion (Unspecified)
board.processor.cores1.core.lsq0.loadToUse::80-89           13      0.00%    100.00% # Distribution of cycle latency between the first time a load is issued and its completion (Unspecified)
board.processor.cores1.core.lsq0.loadToUse::90-99            3      0.00%    100.00% # Distribution of cycle latency between the first time a load is issued and its completion (Unspecified)
board.processor.cores1.core.lsq0.loadToUse::100-109            2      0.00%    100.00% # Distribution of cycle latency between the first time a load is issued and its completion (Unspecified)
board.processor.cores1.core.lsq0.loadToUse::110-119            4      0.00%    100.00% # Distribution of cycle latency between the first time a load is issued and its completion (Unspecified)
board.processor.cores1.core.lsq0.loadToUse::120-129            5      0.00%    100.00% # Distribution of cycle latency between the first time a load is issued and its completion (Unspecified)
board.processor.cores1.core.lsq0.loadToUse::130-139            9      0.00%    100.00% # Distribution of cycle latency between the first time a load is issued and its completion (Unspecified)
board.processor.cores1.core.lsq0.loadToUse::190-199            2      0.00%    100.00% # Distribution of cycle latency between the first time a load is issued and its completion (Unspecified)
board.processor.cores1.core.lsq0.loadToUse::200-209            2      0.00%    100.00% # Distribution of cycle latency between the first time a load is issued and its completion (Unspecified)
board.processor.cores1.core.lsq0.loadToUse::220-229            1      0.00%    100.00% # Distribution of cycle latency between the first time a load is issued and its completion (Unspecified)
board.processor.cores1.core.lsq0.loadToUse::250-259            2      0.00%    100.00% # Distribution of cycle latency between the first time a load is issued and its completion (Unspecified)
board.processor.cores1.core.lsq0.loadToUse::280-289            1      0.00%    100.00% # Distribution of cycle latency between the first time a load is issued and its completion (Unspecified)
board.processor.cores1.core.lsq0.loadToUse::290-299            1      0.00%    100.00% # Distribution of cycle latency between the first time a load is issued and its completion (Unspecified)
board.processor.cores1.core.lsq0.loadToUse::overflows            6      0.00%    100.00% # Distribution of cycle latency between the first time a load is issued and its completion (Unspecified)
board.processor.cores1.core.lsq0.loadToUse::min_value            2                       # Distribution of cycle latency between the first time a load is issued and its completion (Unspecified)
board.processor.cores1.core.lsq0.loadToUse::max_value          935                       # Distribution of cycle latency between the first time a load is issued and its completion (Unspecified)
board.processor.cores1.core.lsq0.loadToUse::total      4875119                       # Distribution of cycle latency between the first time a load is issued and its completion (Unspecified)
board.processor.cores1.core.mmu.dtb.readHits            0                       # read hits (Count)
board.processor.cores1.core.mmu.dtb.readMisses            0                       # read misses (Count)
board.processor.cores1.core.mmu.dtb.readAccesses            0                       # read accesses (Count)
board.processor.cores1.core.mmu.dtb.writeHits            0                       # write hits (Count)
board.processor.cores1.core.mmu.dtb.writeMisses            0                       # write misses (Count)
board.processor.cores1.core.mmu.dtb.writeAccesses            0                       # write accesses (Count)
board.processor.cores1.core.mmu.dtb.hits            0                       # Total TLB (read and write) hits (Count)
board.processor.cores1.core.mmu.dtb.misses            0                       # Total TLB (read and write) misses (Count)
board.processor.cores1.core.mmu.dtb.accesses            0                       # Total TLB (read and write) accesses (Count)
board.processor.cores1.core.mmu.dtb.walker.power_state.pwrStateResidencyTicks::UNDEFINED  19522456750                       # Cumulative time (in ticks) in various power states (Tick)
board.processor.cores1.core.mmu.itb.readHits            0                       # read hits (Count)
board.processor.cores1.core.mmu.itb.readMisses            0                       # read misses (Count)
board.processor.cores1.core.mmu.itb.readAccesses            0                       # read accesses (Count)
board.processor.cores1.core.mmu.itb.writeHits            0                       # write hits (Count)
board.processor.cores1.core.mmu.itb.writeMisses            0                       # write misses (Count)
board.processor.cores1.core.mmu.itb.writeAccesses            0                       # write accesses (Count)
board.processor.cores1.core.mmu.itb.hits            0                       # Total TLB (read and write) hits (Count)
board.processor.cores1.core.mmu.itb.misses            0                       # Total TLB (read and write) misses (Count)
board.processor.cores1.core.mmu.itb.accesses            0                       # Total TLB (read and write) accesses (Count)
board.processor.cores1.core.mmu.itb.walker.power_state.pwrStateResidencyTicks::UNDEFINED  19522456750                       # Cumulative time (in ticks) in various power states (Tick)
board.processor.cores1.core.power_state.numTransitions          601                       # Number of power state transitions (Count)
board.processor.cores1.core.power_state.ticksClkGated::samples          301                       # Distribution of time spent in the clock gated state (Tick)
board.processor.cores1.core.power_state.ticksClkGated::mean 14315826.411960                       # Distribution of time spent in the clock gated state (Tick)
board.processor.cores1.core.power_state.ticksClkGated::stdev 210446893.549419                       # Distribution of time spent in the clock gated state (Tick)
board.processor.cores1.core.power_state.ticksClkGated::1000-5e+10          301    100.00%    100.00% # Distribution of time spent in the clock gated state (Tick)
board.processor.cores1.core.power_state.ticksClkGated::min_value        16000                       # Distribution of time spent in the clock gated state (Tick)
board.processor.cores1.core.power_state.ticksClkGated::max_value   3650767250                       # Distribution of time spent in the clock gated state (Tick)
board.processor.cores1.core.power_state.ticksClkGated::total          301                       # Distribution of time spent in the clock gated state (Tick)
board.processor.cores1.core.power_state.pwrStateResidencyTicks::ON  15213393000                       # Cumulative time (in ticks) in various power states (Tick)
board.processor.cores1.core.power_state.pwrStateResidencyTicks::CLK_GATED   4309063750                       # Cumulative time (in ticks) in various power states (Tick)
board.processor.cores1.core.rename.squashCycles       900765                       # Number of cycles rename is squashing (Cycle)
board.processor.cores1.core.rename.idleCycles     39938892                       # Number of cycles rename is idle (Cycle)
board.processor.cores1.core.rename.blockCycles      5023705                       # Number of cycles rename is blocking (Cycle)
board.processor.cores1.core.rename.serializeStallCycles       161111                       # count of cycles rename stalled for serializing inst (Cycle)
board.processor.cores1.core.rename.runCycles     11681442                       # Number of cycles rename is running (Cycle)
board.processor.cores1.core.rename.unblockCycles      2652170                       # Number of cycles rename is unblocking (Cycle)
board.processor.cores1.core.rename.renamedInsts     34968732                       # Number of instructions processed by rename (Count)
board.processor.cores1.core.rename.ROBFullEvents       251753                       # Number of times rename has blocked due to ROB full (Count)
board.processor.cores1.core.rename.IQFullEvents       110972                       # Number of times rename has blocked due to IQ full (Count)
board.processor.cores1.core.rename.LQFullEvents      2067615                       # Number of times rename has blocked due to LQ full (Count)
board.processor.cores1.core.rename.SQFullEvents        60627                       # Number of times rename has blocked due to SQ full (Count)
board.processor.cores1.core.rename.renamedOperands     22183641                       # Number of destination operands rename has renamed (Count)
board.processor.cores1.core.rename.lookups     47125338                       # Number of register rename lookups that rename has made (Count)
board.processor.cores1.core.rename.intLookups     47046006                       # Number of integer rename lookups (Count)
board.processor.cores1.core.rename.fpLookups           12                       # Number of floating rename lookups (Count)
board.processor.cores1.core.rename.committedMaps     12657519                       # Number of HB maps that are committed (Count)
board.processor.cores1.core.rename.undoneMaps      9526122                       # Number of HB maps that are undone due to squashing (Count)
board.processor.cores1.core.rename.serializing         3255                       # count of serializing insts renamed (Count)
board.processor.cores1.core.rename.tempSerializing         3666                       # count of temporary serializing insts renamed (Count)
board.processor.cores1.core.rename.skidInsts      1580024                       # count of insts added to the skid buffer (Count)
board.processor.cores1.core.rob.reads        88172877                       # The number of ROB reads (Count)
board.processor.cores1.core.rob.writes       71632262                       # The number of ROB writes (Count)
board.processor.cores1.core.thread_0.numInsts     19357802                       # Number of Instructions committed (Count)
board.processor.cores1.core.thread_0.numOps     19392514                       # Number of Ops committed (Count)
board.processor.cores1.core.thread_0.numMemRefs            0                       # Number of Memory References (Count)
board.workload.inst.arm                             0                       # number of arm instructions executed (Count)
board.workload.inst.quiesce                         0                       # number of quiesce instructions executed (Count)

---------- End Simulation Statistics   ----------
