
---------- Begin Simulation Statistics ----------
simSeconds                                   0.182118                       # Number of seconds simulated (Second)
simTicks                                 182117806250                       # Number of ticks simulated (Tick)
finalTick                                182117806250                       # Number of ticks from beginning of simulation (restored from checkpoints and never reset) (Tick)
simFreq                                  1000000000000                       # The number of ticks per simulated second ((Tick/Second))
hostSeconds                                   1095.18                       # Real time elapsed on the host (Second)
hostTickRate                                166290671                       # The number of ticks simulated per host second (ticks/s) ((Tick/Second))
hostMemory                                    8618012                       # Number of bytes of host memory used (Byte)
simInsts                                    549685121                       # Number of instructions simulated (Count)
simOps                                      549685174                       # Number of ops (including micro ops) simulated (Count)
hostInstRate                                   501914                       # Simulator instruction rate (inst/s) ((Count/Second))
hostOpRate                                     501914                       # Simulator op (including micro ops) rate (op/s) ((Count/Second))
board.cache_hierarchy.dptw_caches0.blockedCycles::no_mshrs            0                       # number of cycles access was blocked (Cycle)
board.cache_hierarchy.dptw_caches0.blockedCycles::no_targets            0                       # number of cycles access was blocked (Cycle)
board.cache_hierarchy.dptw_caches0.blockedCauses::no_mshrs            0                       # number of times access was blocked (Count)
board.cache_hierarchy.dptw_caches0.blockedCauses::no_targets            0                       # number of times access was blocked (Count)
board.cache_hierarchy.dptw_caches0.avgBlocked::no_mshrs          nan                       # average number of cycles each access was blocked ((Cycle/Count))
board.cache_hierarchy.dptw_caches0.avgBlocked::no_targets          nan                       # average number of cycles each access was blocked ((Cycle/Count))
board.cache_hierarchy.dptw_caches0.replacements            0                       # number of replacements (Count)
board.cache_hierarchy.dptw_caches0.power_state.pwrStateResidencyTicks::UNDEFINED 182117806250                       # Cumulative time (in ticks) in various power states (Tick)
board.cache_hierarchy.dptw_caches0.tags.tagsInUse            0                       # Average ticks per tags in use ((Tick/Count))
board.cache_hierarchy.dptw_caches0.tags.totalRefs            0                       # Total number of references to valid blocks. (Count)
board.cache_hierarchy.dptw_caches0.tags.sampledRefs            0                       # Sample count of references to valid blocks. (Count)
board.cache_hierarchy.dptw_caches0.tags.avgRefs          nan                       # Average number of references to valid blocks. ((Count/Count))
board.cache_hierarchy.dptw_caches0.tags.warmupTick            0                       # The tick when the warmup percentage was hit. (Tick)
board.cache_hierarchy.dptw_caches0.tags.tagAccesses            0                       # Number of tag accesses (Count)
board.cache_hierarchy.dptw_caches0.tags.dataAccesses            0                       # Number of data accesses (Count)
board.cache_hierarchy.dptw_caches0.tags.power_state.pwrStateResidencyTicks::UNDEFINED 182117806250                       # Cumulative time (in ticks) in various power states (Tick)
board.cache_hierarchy.dptw_caches1.blockedCycles::no_mshrs            0                       # number of cycles access was blocked (Cycle)
board.cache_hierarchy.dptw_caches1.blockedCycles::no_targets            0                       # number of cycles access was blocked (Cycle)
board.cache_hierarchy.dptw_caches1.blockedCauses::no_mshrs            0                       # number of times access was blocked (Count)
board.cache_hierarchy.dptw_caches1.blockedCauses::no_targets            0                       # number of times access was blocked (Count)
board.cache_hierarchy.dptw_caches1.avgBlocked::no_mshrs          nan                       # average number of cycles each access was blocked ((Cycle/Count))
board.cache_hierarchy.dptw_caches1.avgBlocked::no_targets          nan                       # average number of cycles each access was blocked ((Cycle/Count))
board.cache_hierarchy.dptw_caches1.replacements            0                       # number of replacements (Count)
board.cache_hierarchy.dptw_caches1.power_state.pwrStateResidencyTicks::UNDEFINED 182117806250                       # Cumulative time (in ticks) in various power states (Tick)
board.cache_hierarchy.dptw_caches1.tags.tagsInUse            0                       # Average ticks per tags in use ((Tick/Count))
board.cache_hierarchy.dptw_caches1.tags.totalRefs            0                       # Total number of references to valid blocks. (Count)
board.cache_hierarchy.dptw_caches1.tags.sampledRefs            0                       # Sample count of references to valid blocks. (Count)
board.cache_hierarchy.dptw_caches1.tags.avgRefs          nan                       # Average number of references to valid blocks. ((Count/Count))
board.cache_hierarchy.dptw_caches1.tags.warmupTick            0                       # The tick when the warmup percentage was hit. (Tick)
board.cache_hierarchy.dptw_caches1.tags.tagAccesses            0                       # Number of tag accesses (Count)
board.cache_hierarchy.dptw_caches1.tags.dataAccesses            0                       # Number of data accesses (Count)
board.cache_hierarchy.dptw_caches1.tags.power_state.pwrStateResidencyTicks::UNDEFINED 182117806250                       # Cumulative time (in ticks) in various power states (Tick)
board.cache_hierarchy.iptw_caches0.blockedCycles::no_mshrs            0                       # number of cycles access was blocked (Cycle)
board.cache_hierarchy.iptw_caches0.blockedCycles::no_targets            0                       # number of cycles access was blocked (Cycle)
board.cache_hierarchy.iptw_caches0.blockedCauses::no_mshrs            0                       # number of times access was blocked (Count)
board.cache_hierarchy.iptw_caches0.blockedCauses::no_targets            0                       # number of times access was blocked (Count)
board.cache_hierarchy.iptw_caches0.avgBlocked::no_mshrs          nan                       # average number of cycles each access was blocked ((Cycle/Count))
board.cache_hierarchy.iptw_caches0.avgBlocked::no_targets          nan                       # average number of cycles each access was blocked ((Cycle/Count))
board.cache_hierarchy.iptw_caches0.replacements            0                       # number of replacements (Count)
board.cache_hierarchy.iptw_caches0.power_state.pwrStateResidencyTicks::UNDEFINED 182117806250                       # Cumulative time (in ticks) in various power states (Tick)
board.cache_hierarchy.iptw_caches0.tags.tagsInUse            0                       # Average ticks per tags in use ((Tick/Count))
board.cache_hierarchy.iptw_caches0.tags.totalRefs            0                       # Total number of references to valid blocks. (Count)
board.cache_hierarchy.iptw_caches0.tags.sampledRefs            0                       # Sample count of references to valid blocks. (Count)
board.cache_hierarchy.iptw_caches0.tags.avgRefs          nan                       # Average number of references to valid blocks. ((Count/Count))
board.cache_hierarchy.iptw_caches0.tags.warmupTick            0                       # The tick when the warmup percentage was hit. (Tick)
board.cache_hierarchy.iptw_caches0.tags.tagAccesses            0                       # Number of tag accesses (Count)
board.cache_hierarchy.iptw_caches0.tags.dataAccesses            0                       # Number of data accesses (Count)
board.cache_hierarchy.iptw_caches0.tags.power_state.pwrStateResidencyTicks::UNDEFINED 182117806250                       # Cumulative time (in ticks) in various power states (Tick)
board.cache_hierarchy.iptw_caches1.blockedCycles::no_mshrs            0                       # number of cycles access was blocked (Cycle)
board.cache_hierarchy.iptw_caches1.blockedCycles::no_targets            0                       # number of cycles access was blocked (Cycle)
board.cache_hierarchy.iptw_caches1.blockedCauses::no_mshrs            0                       # number of times access was blocked (Count)
board.cache_hierarchy.iptw_caches1.blockedCauses::no_targets            0                       # number of times access was blocked (Count)
board.cache_hierarchy.iptw_caches1.avgBlocked::no_mshrs          nan                       # average number of cycles each access was blocked ((Cycle/Count))
board.cache_hierarchy.iptw_caches1.avgBlocked::no_targets          nan                       # average number of cycles each access was blocked ((Cycle/Count))
board.cache_hierarchy.iptw_caches1.replacements            0                       # number of replacements (Count)
board.cache_hierarchy.iptw_caches1.power_state.pwrStateResidencyTicks::UNDEFINED 182117806250                       # Cumulative time (in ticks) in various power states (Tick)
board.cache_hierarchy.iptw_caches1.tags.tagsInUse            0                       # Average ticks per tags in use ((Tick/Count))
board.cache_hierarchy.iptw_caches1.tags.totalRefs            0                       # Total number of references to valid blocks. (Count)
board.cache_hierarchy.iptw_caches1.tags.sampledRefs            0                       # Sample count of references to valid blocks. (Count)
board.cache_hierarchy.iptw_caches1.tags.avgRefs          nan                       # Average number of references to valid blocks. ((Count/Count))
board.cache_hierarchy.iptw_caches1.tags.warmupTick            0                       # The tick when the warmup percentage was hit. (Tick)
board.cache_hierarchy.iptw_caches1.tags.tagAccesses            0                       # Number of tag accesses (Count)
board.cache_hierarchy.iptw_caches1.tags.dataAccesses            0                       # Number of data accesses (Count)
board.cache_hierarchy.iptw_caches1.tags.power_state.pwrStateResidencyTicks::UNDEFINED 182117806250                       # Cumulative time (in ticks) in various power states (Tick)
board.cache_hierarchy.l1dcaches0.demandHits::processor.cores0.core.data    151129505                       # number of demand (read+write) hits (Count)
board.cache_hierarchy.l1dcaches0.demandHits::total    151129505                       # number of demand (read+write) hits (Count)
board.cache_hierarchy.l1dcaches0.overallHits::processor.cores0.core.data    151129505                       # number of overall hits (Count)
board.cache_hierarchy.l1dcaches0.overallHits::total    151129505                       # number of overall hits (Count)
board.cache_hierarchy.l1dcaches0.demandMisses::processor.cores0.core.data     56925490                       # number of demand (read+write) misses (Count)
board.cache_hierarchy.l1dcaches0.demandMisses::total     56925490                       # number of demand (read+write) misses (Count)
board.cache_hierarchy.l1dcaches0.overallMisses::processor.cores0.core.data     56925490                       # number of overall misses (Count)
board.cache_hierarchy.l1dcaches0.overallMisses::total     56925490                       # number of overall misses (Count)
board.cache_hierarchy.l1dcaches0.demandMissLatency::processor.cores0.core.data 464565464000                       # number of demand (read+write) miss ticks (Tick)
board.cache_hierarchy.l1dcaches0.demandMissLatency::total 464565464000                       # number of demand (read+write) miss ticks (Tick)
board.cache_hierarchy.l1dcaches0.overallMissLatency::processor.cores0.core.data 464565464000                       # number of overall miss ticks (Tick)
board.cache_hierarchy.l1dcaches0.overallMissLatency::total 464565464000                       # number of overall miss ticks (Tick)
board.cache_hierarchy.l1dcaches0.demandAccesses::processor.cores0.core.data    208054995                       # number of demand (read+write) accesses (Count)
board.cache_hierarchy.l1dcaches0.demandAccesses::total    208054995                       # number of demand (read+write) accesses (Count)
board.cache_hierarchy.l1dcaches0.overallAccesses::processor.cores0.core.data    208054995                       # number of overall (read+write) accesses (Count)
board.cache_hierarchy.l1dcaches0.overallAccesses::total    208054995                       # number of overall (read+write) accesses (Count)
board.cache_hierarchy.l1dcaches0.demandMissRate::processor.cores0.core.data     0.273608                       # miss rate for demand accesses (Ratio)
board.cache_hierarchy.l1dcaches0.demandMissRate::total     0.273608                       # miss rate for demand accesses (Ratio)
board.cache_hierarchy.l1dcaches0.overallMissRate::processor.cores0.core.data     0.273608                       # miss rate for overall accesses (Ratio)
board.cache_hierarchy.l1dcaches0.overallMissRate::total     0.273608                       # miss rate for overall accesses (Ratio)
board.cache_hierarchy.l1dcaches0.demandAvgMissLatency::processor.cores0.core.data  8160.939221                       # average overall miss latency in ticks ((Tick/Count))
board.cache_hierarchy.l1dcaches0.demandAvgMissLatency::total  8160.939221                       # average overall miss latency in ticks ((Tick/Count))
board.cache_hierarchy.l1dcaches0.overallAvgMissLatency::processor.cores0.core.data  8160.939221                       # average overall miss latency ((Tick/Count))
board.cache_hierarchy.l1dcaches0.overallAvgMissLatency::total  8160.939221                       # average overall miss latency ((Tick/Count))
board.cache_hierarchy.l1dcaches0.blockedCycles::no_mshrs            0                       # number of cycles access was blocked (Cycle)
board.cache_hierarchy.l1dcaches0.blockedCycles::no_targets         6229                       # number of cycles access was blocked (Cycle)
board.cache_hierarchy.l1dcaches0.blockedCauses::no_mshrs            0                       # number of times access was blocked (Count)
board.cache_hierarchy.l1dcaches0.blockedCauses::no_targets           35                       # number of times access was blocked (Count)
board.cache_hierarchy.l1dcaches0.avgBlocked::no_mshrs          nan                       # average number of cycles each access was blocked ((Cycle/Count))
board.cache_hierarchy.l1dcaches0.avgBlocked::no_targets   177.971429                       # average number of cycles each access was blocked ((Cycle/Count))
board.cache_hierarchy.l1dcaches0.writebacks::writebacks     23010806                       # number of writebacks (Count)
board.cache_hierarchy.l1dcaches0.writebacks::total     23010806                       # number of writebacks (Count)
board.cache_hierarchy.l1dcaches0.demandMshrHits::processor.cores0.core.data     39247010                       # number of demand (read+write) MSHR hits (Count)
board.cache_hierarchy.l1dcaches0.demandMshrHits::total     39247010                       # number of demand (read+write) MSHR hits (Count)
board.cache_hierarchy.l1dcaches0.overallMshrHits::processor.cores0.core.data     39247010                       # number of overall MSHR hits (Count)
board.cache_hierarchy.l1dcaches0.overallMshrHits::total     39247010                       # number of overall MSHR hits (Count)
board.cache_hierarchy.l1dcaches0.demandMshrMisses::processor.cores0.core.data     17678480                       # number of demand (read+write) MSHR misses (Count)
board.cache_hierarchy.l1dcaches0.demandMshrMisses::total     17678480                       # number of demand (read+write) MSHR misses (Count)
board.cache_hierarchy.l1dcaches0.overallMshrMisses::cache_hierarchy.l1dcaches0.prefetcher      7306212                       # number of overall MSHR misses (Count)
board.cache_hierarchy.l1dcaches0.overallMshrMisses::processor.cores0.core.data     17678480                       # number of overall MSHR misses (Count)
board.cache_hierarchy.l1dcaches0.overallMshrMisses::total     24984692                       # number of overall MSHR misses (Count)
board.cache_hierarchy.l1dcaches0.demandMshrMissLatency::processor.cores0.core.data 120546022500                       # number of demand (read+write) MSHR miss ticks (Tick)
board.cache_hierarchy.l1dcaches0.demandMshrMissLatency::total 120546022500                       # number of demand (read+write) MSHR miss ticks (Tick)
board.cache_hierarchy.l1dcaches0.overallMshrMissLatency::cache_hierarchy.l1dcaches0.prefetcher 110074613608                       # number of overall MSHR miss ticks (Tick)
board.cache_hierarchy.l1dcaches0.overallMshrMissLatency::processor.cores0.core.data 120546022500                       # number of overall MSHR miss ticks (Tick)
board.cache_hierarchy.l1dcaches0.overallMshrMissLatency::total 230620636108                       # number of overall MSHR miss ticks (Tick)
board.cache_hierarchy.l1dcaches0.demandMshrMissRate::processor.cores0.core.data     0.084970                       # mshr miss ratio for demand accesses (Ratio)
board.cache_hierarchy.l1dcaches0.demandMshrMissRate::total     0.084970                       # mshr miss ratio for demand accesses (Ratio)
board.cache_hierarchy.l1dcaches0.overallMshrMissRate::cache_hierarchy.l1dcaches0.prefetcher          inf                       # mshr miss ratio for overall accesses (Ratio)
board.cache_hierarchy.l1dcaches0.overallMshrMissRate::processor.cores0.core.data     0.084970                       # mshr miss ratio for overall accesses (Ratio)
board.cache_hierarchy.l1dcaches0.overallMshrMissRate::total     0.120087                       # mshr miss ratio for overall accesses (Ratio)
board.cache_hierarchy.l1dcaches0.demandAvgMshrMissLatency::processor.cores0.core.data  6818.800174                       # average overall mshr miss latency ((Tick/Count))
board.cache_hierarchy.l1dcaches0.demandAvgMshrMissLatency::total  6818.800174                       # average overall mshr miss latency ((Tick/Count))
board.cache_hierarchy.l1dcaches0.overallAvgMshrMissLatency::cache_hierarchy.l1dcaches0.prefetcher 15065.893736                       # average overall mshr miss latency ((Tick/Count))
board.cache_hierarchy.l1dcaches0.overallAvgMshrMissLatency::processor.cores0.core.data  6818.800174                       # average overall mshr miss latency ((Tick/Count))
board.cache_hierarchy.l1dcaches0.overallAvgMshrMissLatency::total  9230.477450                       # average overall mshr miss latency ((Tick/Count))
board.cache_hierarchy.l1dcaches0.replacements     24670085                       # number of replacements (Count)
board.cache_hierarchy.l1dcaches0.HardPFReq.mshrMisses::cache_hierarchy.l1dcaches0.prefetcher      7306212                       # number of HardPFReq MSHR misses (Count)
board.cache_hierarchy.l1dcaches0.HardPFReq.mshrMisses::total      7306212                       # number of HardPFReq MSHR misses (Count)
board.cache_hierarchy.l1dcaches0.HardPFReq.mshrMissLatency::cache_hierarchy.l1dcaches0.prefetcher 110074613608                       # number of HardPFReq MSHR miss ticks (Tick)
board.cache_hierarchy.l1dcaches0.HardPFReq.mshrMissLatency::total 110074613608                       # number of HardPFReq MSHR miss ticks (Tick)
board.cache_hierarchy.l1dcaches0.HardPFReq.mshrMissRate::cache_hierarchy.l1dcaches0.prefetcher          inf                       # mshr miss rate for HardPFReq accesses (Ratio)
board.cache_hierarchy.l1dcaches0.HardPFReq.mshrMissRate::total          inf                       # mshr miss rate for HardPFReq accesses (Ratio)
board.cache_hierarchy.l1dcaches0.HardPFReq.avgMshrMissLatency::cache_hierarchy.l1dcaches0.prefetcher 15065.893736                       # average HardPFReq mshr miss latency ((Tick/Count))
board.cache_hierarchy.l1dcaches0.HardPFReq.avgMshrMissLatency::total 15065.893736                       # average HardPFReq mshr miss latency ((Tick/Count))
board.cache_hierarchy.l1dcaches0.LoadLockedReq.hits::processor.cores0.core.data           41                       # number of LoadLockedReq hits (Count)
board.cache_hierarchy.l1dcaches0.LoadLockedReq.hits::total           41                       # number of LoadLockedReq hits (Count)
board.cache_hierarchy.l1dcaches0.LoadLockedReq.misses::processor.cores0.core.data            9                       # number of LoadLockedReq misses (Count)
board.cache_hierarchy.l1dcaches0.LoadLockedReq.misses::total            9                       # number of LoadLockedReq misses (Count)
board.cache_hierarchy.l1dcaches0.LoadLockedReq.missLatency::processor.cores0.core.data       629500                       # number of LoadLockedReq miss ticks (Tick)
board.cache_hierarchy.l1dcaches0.LoadLockedReq.missLatency::total       629500                       # number of LoadLockedReq miss ticks (Tick)
board.cache_hierarchy.l1dcaches0.LoadLockedReq.accesses::processor.cores0.core.data           50                       # number of LoadLockedReq accesses(hits+misses) (Count)
board.cache_hierarchy.l1dcaches0.LoadLockedReq.accesses::total           50                       # number of LoadLockedReq accesses(hits+misses) (Count)
board.cache_hierarchy.l1dcaches0.LoadLockedReq.missRate::processor.cores0.core.data     0.180000                       # miss rate for LoadLockedReq accesses (Ratio)
board.cache_hierarchy.l1dcaches0.LoadLockedReq.missRate::total     0.180000                       # miss rate for LoadLockedReq accesses (Ratio)
board.cache_hierarchy.l1dcaches0.LoadLockedReq.avgMissLatency::processor.cores0.core.data 69944.444444                       # average LoadLockedReq miss latency ((Tick/Count))
board.cache_hierarchy.l1dcaches0.LoadLockedReq.avgMissLatency::total 69944.444444                       # average LoadLockedReq miss latency ((Tick/Count))
board.cache_hierarchy.l1dcaches0.LoadLockedReq.mshrHits::processor.cores0.core.data            7                       # number of LoadLockedReq MSHR hits (Count)
board.cache_hierarchy.l1dcaches0.LoadLockedReq.mshrHits::total            7                       # number of LoadLockedReq MSHR hits (Count)
board.cache_hierarchy.l1dcaches0.LoadLockedReq.mshrMisses::processor.cores0.core.data            2                       # number of LoadLockedReq MSHR misses (Count)
board.cache_hierarchy.l1dcaches0.LoadLockedReq.mshrMisses::total            2                       # number of LoadLockedReq MSHR misses (Count)
board.cache_hierarchy.l1dcaches0.LoadLockedReq.mshrMissLatency::processor.cores0.core.data       151250                       # number of LoadLockedReq MSHR miss ticks (Tick)
board.cache_hierarchy.l1dcaches0.LoadLockedReq.mshrMissLatency::total       151250                       # number of LoadLockedReq MSHR miss ticks (Tick)
board.cache_hierarchy.l1dcaches0.LoadLockedReq.mshrMissRate::processor.cores0.core.data     0.040000                       # mshr miss rate for LoadLockedReq accesses (Ratio)
board.cache_hierarchy.l1dcaches0.LoadLockedReq.mshrMissRate::total     0.040000                       # mshr miss rate for LoadLockedReq accesses (Ratio)
board.cache_hierarchy.l1dcaches0.LoadLockedReq.avgMshrMissLatency::processor.cores0.core.data        75625                       # average LoadLockedReq mshr miss latency ((Tick/Count))
board.cache_hierarchy.l1dcaches0.LoadLockedReq.avgMshrMissLatency::total        75625                       # average LoadLockedReq mshr miss latency ((Tick/Count))
board.cache_hierarchy.l1dcaches0.ReadReq.hits::processor.cores0.core.data     84327072                       # number of ReadReq hits (Count)
board.cache_hierarchy.l1dcaches0.ReadReq.hits::total     84327072                       # number of ReadReq hits (Count)
board.cache_hierarchy.l1dcaches0.ReadReq.misses::processor.cores0.core.data     21282763                       # number of ReadReq misses (Count)
board.cache_hierarchy.l1dcaches0.ReadReq.misses::total     21282763                       # number of ReadReq misses (Count)
board.cache_hierarchy.l1dcaches0.ReadReq.missLatency::processor.cores0.core.data 230373203250                       # number of ReadReq miss ticks (Tick)
board.cache_hierarchy.l1dcaches0.ReadReq.missLatency::total 230373203250                       # number of ReadReq miss ticks (Tick)
board.cache_hierarchy.l1dcaches0.ReadReq.accesses::processor.cores0.core.data    105609835                       # number of ReadReq accesses(hits+misses) (Count)
board.cache_hierarchy.l1dcaches0.ReadReq.accesses::total    105609835                       # number of ReadReq accesses(hits+misses) (Count)
board.cache_hierarchy.l1dcaches0.ReadReq.missRate::processor.cores0.core.data     0.201523                       # miss rate for ReadReq accesses (Ratio)
board.cache_hierarchy.l1dcaches0.ReadReq.missRate::total     0.201523                       # miss rate for ReadReq accesses (Ratio)
board.cache_hierarchy.l1dcaches0.ReadReq.avgMissLatency::processor.cores0.core.data 10824.402980                       # average ReadReq miss latency ((Tick/Count))
board.cache_hierarchy.l1dcaches0.ReadReq.avgMissLatency::total 10824.402980                       # average ReadReq miss latency ((Tick/Count))
board.cache_hierarchy.l1dcaches0.ReadReq.mshrHits::processor.cores0.core.data     13657602                       # number of ReadReq MSHR hits (Count)
board.cache_hierarchy.l1dcaches0.ReadReq.mshrHits::total     13657602                       # number of ReadReq MSHR hits (Count)
board.cache_hierarchy.l1dcaches0.ReadReq.mshrMisses::processor.cores0.core.data      7625161                       # number of ReadReq MSHR misses (Count)
board.cache_hierarchy.l1dcaches0.ReadReq.mshrMisses::total      7625161                       # number of ReadReq MSHR misses (Count)
board.cache_hierarchy.l1dcaches0.ReadReq.mshrMissLatency::processor.cores0.core.data  58732760000                       # number of ReadReq MSHR miss ticks (Tick)
board.cache_hierarchy.l1dcaches0.ReadReq.mshrMissLatency::total  58732760000                       # number of ReadReq MSHR miss ticks (Tick)
board.cache_hierarchy.l1dcaches0.ReadReq.mshrMissRate::processor.cores0.core.data     0.072201                       # mshr miss rate for ReadReq accesses (Ratio)
board.cache_hierarchy.l1dcaches0.ReadReq.mshrMissRate::total     0.072201                       # mshr miss rate for ReadReq accesses (Ratio)
board.cache_hierarchy.l1dcaches0.ReadReq.avgMshrMissLatency::processor.cores0.core.data  7702.494413                       # average ReadReq mshr miss latency ((Tick/Count))
board.cache_hierarchy.l1dcaches0.ReadReq.avgMshrMissLatency::total  7702.494413                       # average ReadReq mshr miss latency ((Tick/Count))
board.cache_hierarchy.l1dcaches0.StoreCondReq.hits::processor.cores0.core.data           43                       # number of StoreCondReq hits (Count)
board.cache_hierarchy.l1dcaches0.StoreCondReq.hits::total           43                       # number of StoreCondReq hits (Count)
board.cache_hierarchy.l1dcaches0.StoreCondReq.accesses::processor.cores0.core.data           43                       # number of StoreCondReq accesses(hits+misses) (Count)
board.cache_hierarchy.l1dcaches0.StoreCondReq.accesses::total           43                       # number of StoreCondReq accesses(hits+misses) (Count)
board.cache_hierarchy.l1dcaches0.SwapReq.hits::processor.cores0.core.data           78                       # number of SwapReq hits (Count)
board.cache_hierarchy.l1dcaches0.SwapReq.hits::total           78                       # number of SwapReq hits (Count)
board.cache_hierarchy.l1dcaches0.SwapReq.misses::processor.cores0.core.data            1                       # number of SwapReq misses (Count)
board.cache_hierarchy.l1dcaches0.SwapReq.misses::total            1                       # number of SwapReq misses (Count)
board.cache_hierarchy.l1dcaches0.SwapReq.missLatency::processor.cores0.core.data        50750                       # number of SwapReq miss ticks (Tick)
board.cache_hierarchy.l1dcaches0.SwapReq.missLatency::total        50750                       # number of SwapReq miss ticks (Tick)
board.cache_hierarchy.l1dcaches0.SwapReq.accesses::processor.cores0.core.data           79                       # number of SwapReq accesses(hits+misses) (Count)
board.cache_hierarchy.l1dcaches0.SwapReq.accesses::total           79                       # number of SwapReq accesses(hits+misses) (Count)
board.cache_hierarchy.l1dcaches0.SwapReq.missRate::processor.cores0.core.data     0.012658                       # miss rate for SwapReq accesses (Ratio)
board.cache_hierarchy.l1dcaches0.SwapReq.missRate::total     0.012658                       # miss rate for SwapReq accesses (Ratio)
board.cache_hierarchy.l1dcaches0.SwapReq.avgMissLatency::processor.cores0.core.data        50750                       # average SwapReq miss latency ((Tick/Count))
board.cache_hierarchy.l1dcaches0.SwapReq.avgMissLatency::total        50750                       # average SwapReq miss latency ((Tick/Count))
board.cache_hierarchy.l1dcaches0.SwapReq.mshrMisses::processor.cores0.core.data            1                       # number of SwapReq MSHR misses (Count)
board.cache_hierarchy.l1dcaches0.SwapReq.mshrMisses::total            1                       # number of SwapReq MSHR misses (Count)
board.cache_hierarchy.l1dcaches0.SwapReq.mshrMissLatency::processor.cores0.core.data        50500                       # number of SwapReq MSHR miss ticks (Tick)
board.cache_hierarchy.l1dcaches0.SwapReq.mshrMissLatency::total        50500                       # number of SwapReq MSHR miss ticks (Tick)
board.cache_hierarchy.l1dcaches0.SwapReq.mshrMissRate::processor.cores0.core.data     0.012658                       # mshr miss rate for SwapReq accesses (Ratio)
board.cache_hierarchy.l1dcaches0.SwapReq.mshrMissRate::total     0.012658                       # mshr miss rate for SwapReq accesses (Ratio)
board.cache_hierarchy.l1dcaches0.SwapReq.avgMshrMissLatency::processor.cores0.core.data        50500                       # average SwapReq mshr miss latency ((Tick/Count))
board.cache_hierarchy.l1dcaches0.SwapReq.avgMshrMissLatency::total        50500                       # average SwapReq mshr miss latency ((Tick/Count))
board.cache_hierarchy.l1dcaches0.WriteReq.hits::processor.cores0.core.data     66802433                       # number of WriteReq hits (Count)
board.cache_hierarchy.l1dcaches0.WriteReq.hits::total     66802433                       # number of WriteReq hits (Count)
board.cache_hierarchy.l1dcaches0.WriteReq.misses::processor.cores0.core.data     35642727                       # number of WriteReq misses (Count)
board.cache_hierarchy.l1dcaches0.WriteReq.misses::total     35642727                       # number of WriteReq misses (Count)
board.cache_hierarchy.l1dcaches0.WriteReq.missLatency::processor.cores0.core.data 234192260750                       # number of WriteReq miss ticks (Tick)
board.cache_hierarchy.l1dcaches0.WriteReq.missLatency::total 234192260750                       # number of WriteReq miss ticks (Tick)
board.cache_hierarchy.l1dcaches0.WriteReq.accesses::processor.cores0.core.data    102445160                       # number of WriteReq accesses(hits+misses) (Count)
board.cache_hierarchy.l1dcaches0.WriteReq.accesses::total    102445160                       # number of WriteReq accesses(hits+misses) (Count)
board.cache_hierarchy.l1dcaches0.WriteReq.missRate::processor.cores0.core.data     0.347920                       # miss rate for WriteReq accesses (Ratio)
board.cache_hierarchy.l1dcaches0.WriteReq.missRate::total     0.347920                       # miss rate for WriteReq accesses (Ratio)
board.cache_hierarchy.l1dcaches0.WriteReq.avgMissLatency::processor.cores0.core.data  6570.548341                       # average WriteReq miss latency ((Tick/Count))
board.cache_hierarchy.l1dcaches0.WriteReq.avgMissLatency::total  6570.548341                       # average WriteReq miss latency ((Tick/Count))
board.cache_hierarchy.l1dcaches0.WriteReq.mshrHits::processor.cores0.core.data     25589408                       # number of WriteReq MSHR hits (Count)
board.cache_hierarchy.l1dcaches0.WriteReq.mshrHits::total     25589408                       # number of WriteReq MSHR hits (Count)
board.cache_hierarchy.l1dcaches0.WriteReq.mshrMisses::processor.cores0.core.data     10053319                       # number of WriteReq MSHR misses (Count)
board.cache_hierarchy.l1dcaches0.WriteReq.mshrMisses::total     10053319                       # number of WriteReq MSHR misses (Count)
board.cache_hierarchy.l1dcaches0.WriteReq.mshrMissLatency::processor.cores0.core.data  61813262500                       # number of WriteReq MSHR miss ticks (Tick)
board.cache_hierarchy.l1dcaches0.WriteReq.mshrMissLatency::total  61813262500                       # number of WriteReq MSHR miss ticks (Tick)
board.cache_hierarchy.l1dcaches0.WriteReq.mshrMissRate::processor.cores0.core.data     0.098134                       # mshr miss rate for WriteReq accesses (Ratio)
board.cache_hierarchy.l1dcaches0.WriteReq.mshrMissRate::total     0.098134                       # mshr miss rate for WriteReq accesses (Ratio)
board.cache_hierarchy.l1dcaches0.WriteReq.avgMshrMissLatency::processor.cores0.core.data  6148.542834                       # average WriteReq mshr miss latency ((Tick/Count))
board.cache_hierarchy.l1dcaches0.WriteReq.avgMshrMissLatency::total  6148.542834                       # average WriteReq mshr miss latency ((Tick/Count))
board.cache_hierarchy.l1dcaches0.clk_domain.clock          250                       # Clock period in ticks (Tick)
board.cache_hierarchy.l1dcaches0.clk_domain.voltage_domain.voltage            1                       # Voltage in Volts (Volt)
board.cache_hierarchy.l1dcaches0.power_state.pwrStateResidencyTicks::UNDEFINED 182117806250                       # Cumulative time (in ticks) in various power states (Tick)
board.cache_hierarchy.l1dcaches0.prefetcher.demandMshrMisses     17678480                       # demands not covered by prefetchs (Count)
board.cache_hierarchy.l1dcaches0.prefetcher.pfIssued     20026106                       # number of hwpf issued (Count)
board.cache_hierarchy.l1dcaches0.prefetcher.pfUnused       611283                       # number of HardPF blocks evicted w/o reference (Count)
board.cache_hierarchy.l1dcaches0.prefetcher.pfUseful      8133929                       # number of useful prefetch (Count)
board.cache_hierarchy.l1dcaches0.prefetcher.pfUsefulButMiss      1728283                       # number of hit on prefetch but cache block is not in an usable state (Count)
board.cache_hierarchy.l1dcaches0.prefetcher.accuracy     0.406166                       # accuracy of the prefetcher (Count)
board.cache_hierarchy.l1dcaches0.prefetcher.coverage     0.315117                       # coverage brought by this prefetcher (Count)
board.cache_hierarchy.l1dcaches0.prefetcher.pfHitInCache      7017361                       # number of prefetches hitting in cache (Count)
board.cache_hierarchy.l1dcaches0.prefetcher.pfHitInMSHR      5702213                       # number of prefetches hitting in a MSHR (Count)
board.cache_hierarchy.l1dcaches0.prefetcher.pfHitInWB          320                       # number of prefetches hit in the Write Buffer (Count)
board.cache_hierarchy.l1dcaches0.prefetcher.pfLate     12719894                       # number of late prefetches (hitting in cache, MSHR or WB) (Count)
board.cache_hierarchy.l1dcaches0.prefetcher.pfIdentified     28395315                       # number of prefetch candidates identified (Count)
board.cache_hierarchy.l1dcaches0.prefetcher.pfBufferHit      7501866                       # number of redundant prefetches already in prefetch queue (Count)
board.cache_hierarchy.l1dcaches0.prefetcher.pfInCache            0                       # number of redundant prefetches already in cache/mshr dropped (Count)
board.cache_hierarchy.l1dcaches0.prefetcher.pfRemovedDemand        29015                       # number of prefetches dropped due to a demand for the same address (Count)
board.cache_hierarchy.l1dcaches0.prefetcher.pfRemovedFull            0                       # number of prefetches dropped due to prefetch queue size (Count)
board.cache_hierarchy.l1dcaches0.prefetcher.pfSpanPage      7431509                       # number of prefetches that crossed the page (Count)
board.cache_hierarchy.l1dcaches0.prefetcher.pfUsefulSpanPage       343462                       # number of prefetches that is useful and crossed the page (Count)
board.cache_hierarchy.l1dcaches0.prefetcher.power_state.pwrStateResidencyTicks::UNDEFINED 182117806250                       # Cumulative time (in ticks) in various power states (Tick)
board.cache_hierarchy.l1dcaches0.tags.tagsInUse   511.941720                       # Average ticks per tags in use ((Tick/Count))
board.cache_hierarchy.l1dcaches0.tags.totalRefs    177801819                       # Total number of references to valid blocks. (Count)
board.cache_hierarchy.l1dcaches0.tags.sampledRefs     24670597                       # Sample count of references to valid blocks. (Count)
board.cache_hierarchy.l1dcaches0.tags.avgRefs     7.207033                       # Average number of references to valid blocks. ((Count/Count))
board.cache_hierarchy.l1dcaches0.tags.warmupTick       134500                       # The tick when the warmup percentage was hit. (Tick)
board.cache_hierarchy.l1dcaches0.tags.occupancies::cache_hierarchy.l1dcaches0.prefetcher   186.174378                       # Average occupied blocks per tick, per requestor ((Count/Tick))
board.cache_hierarchy.l1dcaches0.tags.occupancies::processor.cores0.core.data   325.767342                       # Average occupied blocks per tick, per requestor ((Count/Tick))
board.cache_hierarchy.l1dcaches0.tags.avgOccs::cache_hierarchy.l1dcaches0.prefetcher     0.363622                       # Average percentage of cache occupancy ((Ratio/Tick))
board.cache_hierarchy.l1dcaches0.tags.avgOccs::processor.cores0.core.data     0.636264                       # Average percentage of cache occupancy ((Ratio/Tick))
board.cache_hierarchy.l1dcaches0.tags.avgOccs::total     0.999886                       # Average percentage of cache occupancy ((Ratio/Tick))
board.cache_hierarchy.l1dcaches0.tags.occupanciesTaskId::1022          219                       # Occupied blocks per task id (Count)
board.cache_hierarchy.l1dcaches0.tags.occupanciesTaskId::1024          293                       # Occupied blocks per task id (Count)
board.cache_hierarchy.l1dcaches0.tags.ageTaskId_1022::0           85                       # Occupied blocks per task id, per block age (Count)
board.cache_hierarchy.l1dcaches0.tags.ageTaskId_1022::1          131                       # Occupied blocks per task id, per block age (Count)
board.cache_hierarchy.l1dcaches0.tags.ageTaskId_1022::2            3                       # Occupied blocks per task id, per block age (Count)
board.cache_hierarchy.l1dcaches0.tags.ageTaskId_1024::0          108                       # Occupied blocks per task id, per block age (Count)
board.cache_hierarchy.l1dcaches0.tags.ageTaskId_1024::1          117                       # Occupied blocks per task id, per block age (Count)
board.cache_hierarchy.l1dcaches0.tags.ageTaskId_1024::2           68                       # Occupied blocks per task id, per block age (Count)
board.cache_hierarchy.l1dcaches0.tags.ratioOccsTaskId::1022     0.427734                       # Ratio of occupied blocks and all blocks, per task id (Ratio)
board.cache_hierarchy.l1dcaches0.tags.ratioOccsTaskId::1024     0.572266                       # Ratio of occupied blocks and all blocks, per task id (Ratio)
board.cache_hierarchy.l1dcaches0.tags.tagAccesses   1689111933                       # Number of tag accesses (Count)
board.cache_hierarchy.l1dcaches0.tags.dataAccesses   1689111933                       # Number of data accesses (Count)
board.cache_hierarchy.l1dcaches0.tags.power_state.pwrStateResidencyTicks::UNDEFINED 182117806250                       # Cumulative time (in ticks) in various power states (Tick)
board.cache_hierarchy.l1dcaches1.blockedCycles::no_mshrs            0                       # number of cycles access was blocked (Cycle)
board.cache_hierarchy.l1dcaches1.blockedCycles::no_targets            0                       # number of cycles access was blocked (Cycle)
board.cache_hierarchy.l1dcaches1.blockedCauses::no_mshrs            0                       # number of times access was blocked (Count)
board.cache_hierarchy.l1dcaches1.blockedCauses::no_targets            0                       # number of times access was blocked (Count)
board.cache_hierarchy.l1dcaches1.avgBlocked::no_mshrs          nan                       # average number of cycles each access was blocked ((Cycle/Count))
board.cache_hierarchy.l1dcaches1.avgBlocked::no_targets          nan                       # average number of cycles each access was blocked ((Cycle/Count))
board.cache_hierarchy.l1dcaches1.replacements            0                       # number of replacements (Count)
board.cache_hierarchy.l1dcaches1.power_state.pwrStateResidencyTicks::UNDEFINED 182117806250                       # Cumulative time (in ticks) in various power states (Tick)
board.cache_hierarchy.l1dcaches1.prefetcher.demandMshrMisses            0                       # demands not covered by prefetchs (Count)
board.cache_hierarchy.l1dcaches1.prefetcher.pfIssued            0                       # number of hwpf issued (Count)
board.cache_hierarchy.l1dcaches1.prefetcher.pfUseful            0                       # number of useful prefetch (Count)
board.cache_hierarchy.l1dcaches1.prefetcher.pfUsefulButMiss            0                       # number of hit on prefetch but cache block is not in an usable state (Count)
board.cache_hierarchy.l1dcaches1.prefetcher.accuracy          nan                       # accuracy of the prefetcher (Count)
board.cache_hierarchy.l1dcaches1.prefetcher.coverage          nan                       # coverage brought by this prefetcher (Count)
board.cache_hierarchy.l1dcaches1.prefetcher.pfHitInCache            0                       # number of prefetches hitting in cache (Count)
board.cache_hierarchy.l1dcaches1.prefetcher.pfHitInMSHR            0                       # number of prefetches hitting in a MSHR (Count)
board.cache_hierarchy.l1dcaches1.prefetcher.pfHitInWB            0                       # number of prefetches hit in the Write Buffer (Count)
board.cache_hierarchy.l1dcaches1.prefetcher.pfLate            0                       # number of late prefetches (hitting in cache, MSHR or WB) (Count)
board.cache_hierarchy.l1dcaches1.prefetcher.pfIdentified            0                       # number of prefetch candidates identified (Count)
board.cache_hierarchy.l1dcaches1.prefetcher.pfBufferHit            0                       # number of redundant prefetches already in prefetch queue (Count)
board.cache_hierarchy.l1dcaches1.prefetcher.pfInCache            0                       # number of redundant prefetches already in cache/mshr dropped (Count)
board.cache_hierarchy.l1dcaches1.prefetcher.pfRemovedDemand            0                       # number of prefetches dropped due to a demand for the same address (Count)
board.cache_hierarchy.l1dcaches1.prefetcher.pfRemovedFull            0                       # number of prefetches dropped due to prefetch queue size (Count)
board.cache_hierarchy.l1dcaches1.prefetcher.pfSpanPage            0                       # number of prefetches that crossed the page (Count)
board.cache_hierarchy.l1dcaches1.prefetcher.pfUsefulSpanPage            0                       # number of prefetches that is useful and crossed the page (Count)
board.cache_hierarchy.l1dcaches1.prefetcher.power_state.pwrStateResidencyTicks::UNDEFINED 182117806250                       # Cumulative time (in ticks) in various power states (Tick)
board.cache_hierarchy.l1dcaches1.tags.tagsInUse            0                       # Average ticks per tags in use ((Tick/Count))
board.cache_hierarchy.l1dcaches1.tags.totalRefs            0                       # Total number of references to valid blocks. (Count)
board.cache_hierarchy.l1dcaches1.tags.sampledRefs            0                       # Sample count of references to valid blocks. (Count)
board.cache_hierarchy.l1dcaches1.tags.avgRefs          nan                       # Average number of references to valid blocks. ((Count/Count))
board.cache_hierarchy.l1dcaches1.tags.warmupTick            0                       # The tick when the warmup percentage was hit. (Tick)
board.cache_hierarchy.l1dcaches1.tags.tagAccesses            0                       # Number of tag accesses (Count)
board.cache_hierarchy.l1dcaches1.tags.dataAccesses            0                       # Number of data accesses (Count)
board.cache_hierarchy.l1dcaches1.tags.power_state.pwrStateResidencyTicks::UNDEFINED 182117806250                       # Cumulative time (in ticks) in various power states (Tick)
board.cache_hierarchy.l1icaches0.demandHits::processor.cores0.core.inst     54002036                       # number of demand (read+write) hits (Count)
board.cache_hierarchy.l1icaches0.demandHits::total     54002036                       # number of demand (read+write) hits (Count)
board.cache_hierarchy.l1icaches0.overallHits::processor.cores0.core.inst     54002036                       # number of overall hits (Count)
board.cache_hierarchy.l1icaches0.overallHits::total     54002036                       # number of overall hits (Count)
board.cache_hierarchy.l1icaches0.demandMisses::processor.cores0.core.inst         4766                       # number of demand (read+write) misses (Count)
board.cache_hierarchy.l1icaches0.demandMisses::total         4766                       # number of demand (read+write) misses (Count)
board.cache_hierarchy.l1icaches0.overallMisses::processor.cores0.core.inst         4766                       # number of overall misses (Count)
board.cache_hierarchy.l1icaches0.overallMisses::total         4766                       # number of overall misses (Count)
board.cache_hierarchy.l1icaches0.demandMissLatency::processor.cores0.core.inst    234398250                       # number of demand (read+write) miss ticks (Tick)
board.cache_hierarchy.l1icaches0.demandMissLatency::total    234398250                       # number of demand (read+write) miss ticks (Tick)
board.cache_hierarchy.l1icaches0.overallMissLatency::processor.cores0.core.inst    234398250                       # number of overall miss ticks (Tick)
board.cache_hierarchy.l1icaches0.overallMissLatency::total    234398250                       # number of overall miss ticks (Tick)
board.cache_hierarchy.l1icaches0.demandAccesses::processor.cores0.core.inst     54006802                       # number of demand (read+write) accesses (Count)
board.cache_hierarchy.l1icaches0.demandAccesses::total     54006802                       # number of demand (read+write) accesses (Count)
board.cache_hierarchy.l1icaches0.overallAccesses::processor.cores0.core.inst     54006802                       # number of overall (read+write) accesses (Count)
board.cache_hierarchy.l1icaches0.overallAccesses::total     54006802                       # number of overall (read+write) accesses (Count)
board.cache_hierarchy.l1icaches0.demandMissRate::processor.cores0.core.inst     0.000088                       # miss rate for demand accesses (Ratio)
board.cache_hierarchy.l1icaches0.demandMissRate::total     0.000088                       # miss rate for demand accesses (Ratio)
board.cache_hierarchy.l1icaches0.overallMissRate::processor.cores0.core.inst     0.000088                       # miss rate for overall accesses (Ratio)
board.cache_hierarchy.l1icaches0.overallMissRate::total     0.000088                       # miss rate for overall accesses (Ratio)
board.cache_hierarchy.l1icaches0.demandAvgMissLatency::processor.cores0.core.inst 49181.336551                       # average overall miss latency in ticks ((Tick/Count))
board.cache_hierarchy.l1icaches0.demandAvgMissLatency::total 49181.336551                       # average overall miss latency in ticks ((Tick/Count))
board.cache_hierarchy.l1icaches0.overallAvgMissLatency::processor.cores0.core.inst 49181.336551                       # average overall miss latency ((Tick/Count))
board.cache_hierarchy.l1icaches0.overallAvgMissLatency::total 49181.336551                       # average overall miss latency ((Tick/Count))
board.cache_hierarchy.l1icaches0.blockedCycles::no_mshrs            0                       # number of cycles access was blocked (Cycle)
board.cache_hierarchy.l1icaches0.blockedCycles::no_targets          104                       # number of cycles access was blocked (Cycle)
board.cache_hierarchy.l1icaches0.blockedCauses::no_mshrs            0                       # number of times access was blocked (Count)
board.cache_hierarchy.l1icaches0.blockedCauses::no_targets            1                       # number of times access was blocked (Count)
board.cache_hierarchy.l1icaches0.avgBlocked::no_mshrs          nan                       # average number of cycles each access was blocked ((Cycle/Count))
board.cache_hierarchy.l1icaches0.avgBlocked::no_targets          104                       # average number of cycles each access was blocked ((Cycle/Count))
board.cache_hierarchy.l1icaches0.demandMshrHits::processor.cores0.core.inst          803                       # number of demand (read+write) MSHR hits (Count)
board.cache_hierarchy.l1icaches0.demandMshrHits::total          803                       # number of demand (read+write) MSHR hits (Count)
board.cache_hierarchy.l1icaches0.overallMshrHits::processor.cores0.core.inst          803                       # number of overall MSHR hits (Count)
board.cache_hierarchy.l1icaches0.overallMshrHits::total          803                       # number of overall MSHR hits (Count)
board.cache_hierarchy.l1icaches0.demandMshrMisses::processor.cores0.core.inst         3963                       # number of demand (read+write) MSHR misses (Count)
board.cache_hierarchy.l1icaches0.demandMshrMisses::total         3963                       # number of demand (read+write) MSHR misses (Count)
board.cache_hierarchy.l1icaches0.overallMshrMisses::processor.cores0.core.inst         3963                       # number of overall MSHR misses (Count)
board.cache_hierarchy.l1icaches0.overallMshrMisses::total         3963                       # number of overall MSHR misses (Count)
board.cache_hierarchy.l1icaches0.demandMshrMissLatency::processor.cores0.core.inst    200433000                       # number of demand (read+write) MSHR miss ticks (Tick)
board.cache_hierarchy.l1icaches0.demandMshrMissLatency::total    200433000                       # number of demand (read+write) MSHR miss ticks (Tick)
board.cache_hierarchy.l1icaches0.overallMshrMissLatency::processor.cores0.core.inst    200433000                       # number of overall MSHR miss ticks (Tick)
board.cache_hierarchy.l1icaches0.overallMshrMissLatency::total    200433000                       # number of overall MSHR miss ticks (Tick)
board.cache_hierarchy.l1icaches0.demandMshrMissRate::processor.cores0.core.inst     0.000073                       # mshr miss ratio for demand accesses (Ratio)
board.cache_hierarchy.l1icaches0.demandMshrMissRate::total     0.000073                       # mshr miss ratio for demand accesses (Ratio)
board.cache_hierarchy.l1icaches0.overallMshrMissRate::processor.cores0.core.inst     0.000073                       # mshr miss ratio for overall accesses (Ratio)
board.cache_hierarchy.l1icaches0.overallMshrMissRate::total     0.000073                       # mshr miss ratio for overall accesses (Ratio)
board.cache_hierarchy.l1icaches0.demandAvgMshrMissLatency::processor.cores0.core.inst 50576.078728                       # average overall mshr miss latency ((Tick/Count))
board.cache_hierarchy.l1icaches0.demandAvgMshrMissLatency::total 50576.078728                       # average overall mshr miss latency ((Tick/Count))
board.cache_hierarchy.l1icaches0.overallAvgMshrMissLatency::processor.cores0.core.inst 50576.078728                       # average overall mshr miss latency ((Tick/Count))
board.cache_hierarchy.l1icaches0.overallAvgMshrMissLatency::total 50576.078728                       # average overall mshr miss latency ((Tick/Count))
board.cache_hierarchy.l1icaches0.replacements         3450                       # number of replacements (Count)
board.cache_hierarchy.l1icaches0.ReadReq.hits::processor.cores0.core.inst     54002036                       # number of ReadReq hits (Count)
board.cache_hierarchy.l1icaches0.ReadReq.hits::total     54002036                       # number of ReadReq hits (Count)
board.cache_hierarchy.l1icaches0.ReadReq.misses::processor.cores0.core.inst         4766                       # number of ReadReq misses (Count)
board.cache_hierarchy.l1icaches0.ReadReq.misses::total         4766                       # number of ReadReq misses (Count)
board.cache_hierarchy.l1icaches0.ReadReq.missLatency::processor.cores0.core.inst    234398250                       # number of ReadReq miss ticks (Tick)
board.cache_hierarchy.l1icaches0.ReadReq.missLatency::total    234398250                       # number of ReadReq miss ticks (Tick)
board.cache_hierarchy.l1icaches0.ReadReq.accesses::processor.cores0.core.inst     54006802                       # number of ReadReq accesses(hits+misses) (Count)
board.cache_hierarchy.l1icaches0.ReadReq.accesses::total     54006802                       # number of ReadReq accesses(hits+misses) (Count)
board.cache_hierarchy.l1icaches0.ReadReq.missRate::processor.cores0.core.inst     0.000088                       # miss rate for ReadReq accesses (Ratio)
board.cache_hierarchy.l1icaches0.ReadReq.missRate::total     0.000088                       # miss rate for ReadReq accesses (Ratio)
board.cache_hierarchy.l1icaches0.ReadReq.avgMissLatency::processor.cores0.core.inst 49181.336551                       # average ReadReq miss latency ((Tick/Count))
board.cache_hierarchy.l1icaches0.ReadReq.avgMissLatency::total 49181.336551                       # average ReadReq miss latency ((Tick/Count))
board.cache_hierarchy.l1icaches0.ReadReq.mshrHits::processor.cores0.core.inst          803                       # number of ReadReq MSHR hits (Count)
board.cache_hierarchy.l1icaches0.ReadReq.mshrHits::total          803                       # number of ReadReq MSHR hits (Count)
board.cache_hierarchy.l1icaches0.ReadReq.mshrMisses::processor.cores0.core.inst         3963                       # number of ReadReq MSHR misses (Count)
board.cache_hierarchy.l1icaches0.ReadReq.mshrMisses::total         3963                       # number of ReadReq MSHR misses (Count)
board.cache_hierarchy.l1icaches0.ReadReq.mshrMissLatency::processor.cores0.core.inst    200433000                       # number of ReadReq MSHR miss ticks (Tick)
board.cache_hierarchy.l1icaches0.ReadReq.mshrMissLatency::total    200433000                       # number of ReadReq MSHR miss ticks (Tick)
board.cache_hierarchy.l1icaches0.ReadReq.mshrMissRate::processor.cores0.core.inst     0.000073                       # mshr miss rate for ReadReq accesses (Ratio)
board.cache_hierarchy.l1icaches0.ReadReq.mshrMissRate::total     0.000073                       # mshr miss rate for ReadReq accesses (Ratio)
board.cache_hierarchy.l1icaches0.ReadReq.avgMshrMissLatency::processor.cores0.core.inst 50576.078728                       # average ReadReq mshr miss latency ((Tick/Count))
board.cache_hierarchy.l1icaches0.ReadReq.avgMshrMissLatency::total 50576.078728                       # average ReadReq mshr miss latency ((Tick/Count))
board.cache_hierarchy.l1icaches0.clk_domain.clock          250                       # Clock period in ticks (Tick)
board.cache_hierarchy.l1icaches0.clk_domain.voltage_domain.voltage            1                       # Voltage in Volts (Volt)
board.cache_hierarchy.l1icaches0.power_state.pwrStateResidencyTicks::UNDEFINED 182117806250                       # Cumulative time (in ticks) in various power states (Tick)
board.cache_hierarchy.l1icaches0.prefetcher.demandMshrMisses         3963                       # demands not covered by prefetchs (Count)
board.cache_hierarchy.l1icaches0.prefetcher.pfIssued            0                       # number of hwpf issued (Count)
board.cache_hierarchy.l1icaches0.prefetcher.pfUseful            0                       # number of useful prefetch (Count)
board.cache_hierarchy.l1icaches0.prefetcher.pfUsefulButMiss            0                       # number of hit on prefetch but cache block is not in an usable state (Count)
board.cache_hierarchy.l1icaches0.prefetcher.accuracy          nan                       # accuracy of the prefetcher (Count)
board.cache_hierarchy.l1icaches0.prefetcher.coverage            0                       # coverage brought by this prefetcher (Count)
board.cache_hierarchy.l1icaches0.prefetcher.pfHitInCache            0                       # number of prefetches hitting in cache (Count)
board.cache_hierarchy.l1icaches0.prefetcher.pfHitInMSHR            0                       # number of prefetches hitting in a MSHR (Count)
board.cache_hierarchy.l1icaches0.prefetcher.pfHitInWB            0                       # number of prefetches hit in the Write Buffer (Count)
board.cache_hierarchy.l1icaches0.prefetcher.pfLate            0                       # number of late prefetches (hitting in cache, MSHR or WB) (Count)
board.cache_hierarchy.l1icaches0.prefetcher.pfIdentified            0                       # number of prefetch candidates identified (Count)
board.cache_hierarchy.l1icaches0.prefetcher.pfBufferHit            0                       # number of redundant prefetches already in prefetch queue (Count)
board.cache_hierarchy.l1icaches0.prefetcher.pfInCache            0                       # number of redundant prefetches already in cache/mshr dropped (Count)
board.cache_hierarchy.l1icaches0.prefetcher.pfRemovedDemand            0                       # number of prefetches dropped due to a demand for the same address (Count)
board.cache_hierarchy.l1icaches0.prefetcher.pfRemovedFull            0                       # number of prefetches dropped due to prefetch queue size (Count)
board.cache_hierarchy.l1icaches0.prefetcher.pfSpanPage            0                       # number of prefetches that crossed the page (Count)
board.cache_hierarchy.l1icaches0.prefetcher.pfUsefulSpanPage            0                       # number of prefetches that is useful and crossed the page (Count)
board.cache_hierarchy.l1icaches0.prefetcher.power_state.pwrStateResidencyTicks::UNDEFINED 182117806250                       # Cumulative time (in ticks) in various power states (Tick)
board.cache_hierarchy.l1icaches0.tags.tagsInUse   511.786001                       # Average ticks per tags in use ((Tick/Count))
board.cache_hierarchy.l1icaches0.tags.totalRefs     54005998                       # Total number of references to valid blocks. (Count)
board.cache_hierarchy.l1icaches0.tags.sampledRefs         3962                       # Sample count of references to valid blocks. (Count)
board.cache_hierarchy.l1icaches0.tags.avgRefs 13630.993942                       # Average number of references to valid blocks. ((Count/Count))
board.cache_hierarchy.l1icaches0.tags.warmupTick        70000                       # The tick when the warmup percentage was hit. (Tick)
board.cache_hierarchy.l1icaches0.tags.occupancies::processor.cores0.core.inst   511.786001                       # Average occupied blocks per tick, per requestor ((Count/Tick))
board.cache_hierarchy.l1icaches0.tags.avgOccs::processor.cores0.core.inst     0.999582                       # Average percentage of cache occupancy ((Ratio/Tick))
board.cache_hierarchy.l1icaches0.tags.avgOccs::total     0.999582                       # Average percentage of cache occupancy ((Ratio/Tick))
board.cache_hierarchy.l1icaches0.tags.occupanciesTaskId::1024          512                       # Occupied blocks per task id (Count)
board.cache_hierarchy.l1icaches0.tags.ageTaskId_1024::0           74                       # Occupied blocks per task id, per block age (Count)
board.cache_hierarchy.l1icaches0.tags.ageTaskId_1024::1          241                       # Occupied blocks per task id, per block age (Count)
board.cache_hierarchy.l1icaches0.tags.ageTaskId_1024::2           50                       # Occupied blocks per task id, per block age (Count)
board.cache_hierarchy.l1icaches0.tags.ageTaskId_1024::4          147                       # Occupied blocks per task id, per block age (Count)
board.cache_hierarchy.l1icaches0.tags.ratioOccsTaskId::1024            1                       # Ratio of occupied blocks and all blocks, per task id (Ratio)
board.cache_hierarchy.l1icaches0.tags.tagAccesses    432058378                       # Number of tag accesses (Count)
board.cache_hierarchy.l1icaches0.tags.dataAccesses    432058378                       # Number of data accesses (Count)
board.cache_hierarchy.l1icaches0.tags.power_state.pwrStateResidencyTicks::UNDEFINED 182117806250                       # Cumulative time (in ticks) in various power states (Tick)
board.cache_hierarchy.l1icaches1.blockedCycles::no_mshrs            0                       # number of cycles access was blocked (Cycle)
board.cache_hierarchy.l1icaches1.blockedCycles::no_targets            0                       # number of cycles access was blocked (Cycle)
board.cache_hierarchy.l1icaches1.blockedCauses::no_mshrs            0                       # number of times access was blocked (Count)
board.cache_hierarchy.l1icaches1.blockedCauses::no_targets            0                       # number of times access was blocked (Count)
board.cache_hierarchy.l1icaches1.avgBlocked::no_mshrs          nan                       # average number of cycles each access was blocked ((Cycle/Count))
board.cache_hierarchy.l1icaches1.avgBlocked::no_targets          nan                       # average number of cycles each access was blocked ((Cycle/Count))
board.cache_hierarchy.l1icaches1.replacements            0                       # number of replacements (Count)
board.cache_hierarchy.l1icaches1.power_state.pwrStateResidencyTicks::UNDEFINED 182117806250                       # Cumulative time (in ticks) in various power states (Tick)
board.cache_hierarchy.l1icaches1.prefetcher.demandMshrMisses            0                       # demands not covered by prefetchs (Count)
board.cache_hierarchy.l1icaches1.prefetcher.pfIssued            0                       # number of hwpf issued (Count)
board.cache_hierarchy.l1icaches1.prefetcher.pfUseful            0                       # number of useful prefetch (Count)
board.cache_hierarchy.l1icaches1.prefetcher.pfUsefulButMiss            0                       # number of hit on prefetch but cache block is not in an usable state (Count)
board.cache_hierarchy.l1icaches1.prefetcher.accuracy          nan                       # accuracy of the prefetcher (Count)
board.cache_hierarchy.l1icaches1.prefetcher.coverage          nan                       # coverage brought by this prefetcher (Count)
board.cache_hierarchy.l1icaches1.prefetcher.pfHitInCache            0                       # number of prefetches hitting in cache (Count)
board.cache_hierarchy.l1icaches1.prefetcher.pfHitInMSHR            0                       # number of prefetches hitting in a MSHR (Count)
board.cache_hierarchy.l1icaches1.prefetcher.pfHitInWB            0                       # number of prefetches hit in the Write Buffer (Count)
board.cache_hierarchy.l1icaches1.prefetcher.pfLate            0                       # number of late prefetches (hitting in cache, MSHR or WB) (Count)
board.cache_hierarchy.l1icaches1.prefetcher.pfIdentified            0                       # number of prefetch candidates identified (Count)
board.cache_hierarchy.l1icaches1.prefetcher.pfBufferHit            0                       # number of redundant prefetches already in prefetch queue (Count)
board.cache_hierarchy.l1icaches1.prefetcher.pfInCache            0                       # number of redundant prefetches already in cache/mshr dropped (Count)
board.cache_hierarchy.l1icaches1.prefetcher.pfRemovedDemand            0                       # number of prefetches dropped due to a demand for the same address (Count)
board.cache_hierarchy.l1icaches1.prefetcher.pfRemovedFull            0                       # number of prefetches dropped due to prefetch queue size (Count)
board.cache_hierarchy.l1icaches1.prefetcher.pfSpanPage            0                       # number of prefetches that crossed the page (Count)
board.cache_hierarchy.l1icaches1.prefetcher.pfUsefulSpanPage            0                       # number of prefetches that is useful and crossed the page (Count)
board.cache_hierarchy.l1icaches1.prefetcher.power_state.pwrStateResidencyTicks::UNDEFINED 182117806250                       # Cumulative time (in ticks) in various power states (Tick)
board.cache_hierarchy.l1icaches1.tags.tagsInUse            0                       # Average ticks per tags in use ((Tick/Count))
board.cache_hierarchy.l1icaches1.tags.totalRefs            0                       # Total number of references to valid blocks. (Count)
board.cache_hierarchy.l1icaches1.tags.sampledRefs            0                       # Sample count of references to valid blocks. (Count)
board.cache_hierarchy.l1icaches1.tags.avgRefs          nan                       # Average number of references to valid blocks. ((Count/Count))
board.cache_hierarchy.l1icaches1.tags.warmupTick            0                       # The tick when the warmup percentage was hit. (Tick)
board.cache_hierarchy.l1icaches1.tags.tagAccesses            0                       # Number of tag accesses (Count)
board.cache_hierarchy.l1icaches1.tags.dataAccesses            0                       # Number of data accesses (Count)
board.cache_hierarchy.l1icaches1.tags.power_state.pwrStateResidencyTicks::UNDEFINED 182117806250                       # Cumulative time (in ticks) in various power states (Tick)
board.cache_hierarchy.l2buses0.transDist::ReadResp     14934851                       # Transaction distribution (Count)
board.cache_hierarchy.l2buses0.transDist::WritebackDirty     25720704                       # Transaction distribution (Count)
board.cache_hierarchy.l2buses0.transDist::CleanEvict      1880796                       # Transaction distribution (Count)
board.cache_hierarchy.l2buses0.transDist::HardPFReq       772853                       # Transaction distribution (Count)
board.cache_hierarchy.l2buses0.transDist::UpgradeReq       317031                       # Transaction distribution (Count)
board.cache_hierarchy.l2buses0.transDist::UpgradeResp       317031                       # Transaction distribution (Count)
board.cache_hierarchy.l2buses0.transDist::ReadExReq      9657072                       # Transaction distribution (Count)
board.cache_hierarchy.l2buses0.transDist::ReadExResp      9657072                       # Transaction distribution (Count)
board.cache_hierarchy.l2buses0.transDist::ReadSharedReq     14934852                       # Transaction distribution (Count)
board.cache_hierarchy.l2buses0.transDist::InvalidateReq        86042                       # Transaction distribution (Count)
board.cache_hierarchy.l2buses0.transDist::InvalidateResp        86042                       # Transaction distribution (Count)
board.cache_hierarchy.l2buses0.pktCount_board.cache_hierarchy.l1icaches0.mem_side_port::board.cache_hierarchy.l2caches0.cpu_side_port        11375                       # Packet count per connected requestor and responder (Count)
board.cache_hierarchy.l2buses0.pktCount_board.cache_hierarchy.l1dcaches0.mem_side_port::board.cache_hierarchy.l2caches0.cpu_side_port     74652153                       # Packet count per connected requestor and responder (Count)
board.cache_hierarchy.l2buses0.pktCount::total     74663528                       # Packet count per connected requestor and responder (Count)
board.cache_hierarchy.l2buses0.pktSize_board.cache_hierarchy.l1icaches0.mem_side_port::board.cache_hierarchy.l2caches0.cpu_side_port       253568                       # Cumulative packet size per connected requestor and responder (Byte)
board.cache_hierarchy.l2buses0.pktSize_board.cache_hierarchy.l1dcaches0.mem_side_port::board.cache_hierarchy.l2caches0.cpu_side_port   3046321088                       # Cumulative packet size per connected requestor and responder (Byte)
board.cache_hierarchy.l2buses0.pktSize::total   3046574656                       # Cumulative packet size per connected requestor and responder (Byte)
board.cache_hierarchy.l2buses0.snoops         3700818                       # Total snoops (Count)
board.cache_hierarchy.l2buses0.snoopTraffic    173433472                       # Total snoop traffic (Byte)
board.cache_hierarchy.l2buses0.snoopFanout::samples     28696055                       # Request fanout histogram (Count)
board.cache_hierarchy.l2buses0.snoopFanout::mean     0.000214                       # Request fanout histogram (Count)
board.cache_hierarchy.l2buses0.snoopFanout::stdev     0.014613                       # Request fanout histogram (Count)
board.cache_hierarchy.l2buses0.snoopFanout::underflows            0      0.00%      0.00% # Request fanout histogram (Count)
board.cache_hierarchy.l2buses0.snoopFanout::0     28689926     99.98%     99.98% # Request fanout histogram (Count)
board.cache_hierarchy.l2buses0.snoopFanout::1         6129      0.02%    100.00% # Request fanout histogram (Count)
board.cache_hierarchy.l2buses0.snoopFanout::2            0      0.00%    100.00% # Request fanout histogram (Count)
board.cache_hierarchy.l2buses0.snoopFanout::3            0      0.00%    100.00% # Request fanout histogram (Count)
board.cache_hierarchy.l2buses0.snoopFanout::4            0      0.00%    100.00% # Request fanout histogram (Count)
board.cache_hierarchy.l2buses0.snoopFanout::overflows            0      0.00%    100.00% # Request fanout histogram (Count)
board.cache_hierarchy.l2buses0.snoopFanout::min_value            0                       # Request fanout histogram (Count)
board.cache_hierarchy.l2buses0.snoopFanout::max_value            1                       # Request fanout histogram (Count)
board.cache_hierarchy.l2buses0.snoopFanout::total     28696055                       # Request fanout histogram (Count)
board.cache_hierarchy.l2buses0.power_state.pwrStateResidencyTicks::UNDEFINED 182117806250                       # Cumulative time (in ticks) in various power states (Tick)
board.cache_hierarchy.l2buses0.reqLayer0.occupancy  24028234566                       # Layer occupancy (ticks) (Tick)
board.cache_hierarchy.l2buses0.reqLayer0.utilization          0.1                       # Layer utilization (Ratio)
board.cache_hierarchy.l2buses0.respLayer0.occupancy      2973492                       # Layer occupancy (ticks) (Tick)
board.cache_hierarchy.l2buses0.respLayer0.utilization          0.0                       # Layer utilization (Ratio)
board.cache_hierarchy.l2buses0.respLayer1.occupancy  18541739498                       # Layer occupancy (ticks) (Tick)
board.cache_hierarchy.l2buses0.respLayer1.utilization          0.1                       # Layer utilization (Ratio)
board.cache_hierarchy.l2buses0.snoop_filter.totRequests     49668883                       # Total number of requests made to the snoop filter. (Count)
board.cache_hierarchy.l2buses0.snoop_filter.hitSingleRequests     24994086                       # Number of requests hitting in the snoop filter with a single holder of the requested data. (Count)
board.cache_hierarchy.l2buses0.snoop_filter.hitMultiRequests         1792                       # Number of requests hitting in the snoop filter with multiple (>1) holders of the requested data. (Count)
board.cache_hierarchy.l2buses0.snoop_filter.totSnoops         4337                       # Total number of snoops made to the snoop filter. (Count)
board.cache_hierarchy.l2buses0.snoop_filter.hitSingleSnoops         4337                       # Number of snoops hitting in the snoop filter with a single holder of the requested data. (Count)
board.cache_hierarchy.l2buses0.snoop_filter.hitMultiSnoops            0                       # Number of snoops hitting in the snoop filter with multiple (>1) holders of the requested data. (Count)
board.cache_hierarchy.l2buses1.snoops               0                       # Total snoops (Count)
board.cache_hierarchy.l2buses1.snoopTraffic            0                       # Total snoop traffic (Byte)
board.cache_hierarchy.l2buses1.snoopFanout::samples            0                       # Request fanout histogram (Count)
board.cache_hierarchy.l2buses1.snoopFanout::mean          nan                       # Request fanout histogram (Count)
board.cache_hierarchy.l2buses1.snoopFanout::stdev          nan                       # Request fanout histogram (Count)
board.cache_hierarchy.l2buses1.snoopFanout::underflows            0                       # Request fanout histogram (Count)
board.cache_hierarchy.l2buses1.snoopFanout::0            0                       # Request fanout histogram (Count)
board.cache_hierarchy.l2buses1.snoopFanout::1            0                       # Request fanout histogram (Count)
board.cache_hierarchy.l2buses1.snoopFanout::2            0                       # Request fanout histogram (Count)
board.cache_hierarchy.l2buses1.snoopFanout::3            0                       # Request fanout histogram (Count)
board.cache_hierarchy.l2buses1.snoopFanout::4            0                       # Request fanout histogram (Count)
board.cache_hierarchy.l2buses1.snoopFanout::overflows            0                       # Request fanout histogram (Count)
board.cache_hierarchy.l2buses1.snoopFanout::min_value            0                       # Request fanout histogram (Count)
board.cache_hierarchy.l2buses1.snoopFanout::max_value            0                       # Request fanout histogram (Count)
board.cache_hierarchy.l2buses1.snoopFanout::total            0                       # Request fanout histogram (Count)
board.cache_hierarchy.l2buses1.power_state.pwrStateResidencyTicks::UNDEFINED 182117806250                       # Cumulative time (in ticks) in various power states (Tick)
board.cache_hierarchy.l2buses1.snoop_filter.totRequests            0                       # Total number of requests made to the snoop filter. (Count)
board.cache_hierarchy.l2buses1.snoop_filter.hitSingleRequests            0                       # Number of requests hitting in the snoop filter with a single holder of the requested data. (Count)
board.cache_hierarchy.l2buses1.snoop_filter.hitMultiRequests            0                       # Number of requests hitting in the snoop filter with multiple (>1) holders of the requested data. (Count)
board.cache_hierarchy.l2buses1.snoop_filter.totSnoops            0                       # Total number of snoops made to the snoop filter. (Count)
board.cache_hierarchy.l2buses1.snoop_filter.hitSingleSnoops            0                       # Number of snoops hitting in the snoop filter with a single holder of the requested data. (Count)
board.cache_hierarchy.l2buses1.snoop_filter.hitMultiSnoops            0                       # Number of snoops hitting in the snoop filter with multiple (>1) holders of the requested data. (Count)
board.cache_hierarchy.l2caches0.demandHits::cache_hierarchy.l1dcaches0.prefetcher      5745692                       # number of demand (read+write) hits (Count)
board.cache_hierarchy.l2caches0.demandHits::processor.cores0.core.inst          726                       # number of demand (read+write) hits (Count)
board.cache_hierarchy.l2caches0.demandHits::processor.cores0.core.data     16350825                       # number of demand (read+write) hits (Count)
board.cache_hierarchy.l2caches0.demandHits::total     22097243                       # number of demand (read+write) hits (Count)
board.cache_hierarchy.l2caches0.overallHits::cache_hierarchy.l1dcaches0.prefetcher      5745692                       # number of overall hits (Count)
board.cache_hierarchy.l2caches0.overallHits::processor.cores0.core.inst          726                       # number of overall hits (Count)
board.cache_hierarchy.l2caches0.overallHits::processor.cores0.core.data     16350825                       # number of overall hits (Count)
board.cache_hierarchy.l2caches0.overallHits::total     22097243                       # number of overall hits (Count)
board.cache_hierarchy.l2caches0.demandMisses::cache_hierarchy.l1dcaches0.prefetcher      1560520                       # number of demand (read+write) misses (Count)
board.cache_hierarchy.l2caches0.demandMisses::processor.cores0.core.inst         3237                       # number of demand (read+write) misses (Count)
board.cache_hierarchy.l2caches0.demandMisses::processor.cores0.core.data       930924                       # number of demand (read+write) misses (Count)
board.cache_hierarchy.l2caches0.demandMisses::total      2494681                       # number of demand (read+write) misses (Count)
board.cache_hierarchy.l2caches0.overallMisses::cache_hierarchy.l1dcaches0.prefetcher      1560520                       # number of overall misses (Count)
board.cache_hierarchy.l2caches0.overallMisses::processor.cores0.core.inst         3237                       # number of overall misses (Count)
board.cache_hierarchy.l2caches0.overallMisses::processor.cores0.core.data       930924                       # number of overall misses (Count)
board.cache_hierarchy.l2caches0.overallMisses::total      2494681                       # number of overall misses (Count)
board.cache_hierarchy.l2caches0.demandMissLatency::cache_hierarchy.l1dcaches0.prefetcher  84698336161                       # number of demand (read+write) miss ticks (Tick)
board.cache_hierarchy.l2caches0.demandMissLatency::processor.cores0.core.inst    187516750                       # number of demand (read+write) miss ticks (Tick)
board.cache_hierarchy.l2caches0.demandMissLatency::processor.cores0.core.data  21186354709                       # number of demand (read+write) miss ticks (Tick)
board.cache_hierarchy.l2caches0.demandMissLatency::total 106072207620                       # number of demand (read+write) miss ticks (Tick)
board.cache_hierarchy.l2caches0.overallMissLatency::cache_hierarchy.l1dcaches0.prefetcher  84698336161                       # number of overall miss ticks (Tick)
board.cache_hierarchy.l2caches0.overallMissLatency::processor.cores0.core.inst    187516750                       # number of overall miss ticks (Tick)
board.cache_hierarchy.l2caches0.overallMissLatency::processor.cores0.core.data  21186354709                       # number of overall miss ticks (Tick)
board.cache_hierarchy.l2caches0.overallMissLatency::total 106072207620                       # number of overall miss ticks (Tick)
board.cache_hierarchy.l2caches0.demandAccesses::cache_hierarchy.l1dcaches0.prefetcher      7306212                       # number of demand (read+write) accesses (Count)
[...]
board.processor.cores1.core.commitStats0.committedInstType::SimdFloatAdd            0                       # Class of committed instruction. (Count)
board.processor.cores1.core.commitStats0.committedInstType::SimdFloatAlu            0                       # Class of committed instruction. (Count)
board.processor.cores1.core.commitStats0.committedInstType::SimdFloatCmp            0                       # Class of committed instruction. (Count)
board.processor.cores1.core.commitStats0.committedInstType::SimdFloatCvt            0                       # Class of committed instruction. (Count)
board.processor.cores1.core.commitStats0.committedInstType::SimdFloatDiv            0                       # Class of committed instruction. (Count)
board.processor.cores1.core.commitStats0.committedInstType::SimdFloatMisc            0                       # Class of committed instruction. (Count)
board.processor.cores1.core.commitStats0.committedInstType::SimdFloatMult            0                       # Class of committed instruction. (Count)
board.processor.cores1.core.commitStats0.committedInstType::SimdFloatMultAcc            0                       # Class of committed instruction. (Count)
board.processor.cores1.core.commitStats0.committedInstType::SimdFloatMatMultAcc            0                       # Class of committed instruction. (Count)
board.processor.cores1.core.commitStats0.committedInstType::SimdFloatSqrt            0                       # Class of committed instruction. (Count)
board.processor.cores1.core.commitStats0.committedInstType::SimdReduceAdd            0                       # Class of committed instruction. (Count)
board.processor.cores1.core.commitStats0.committedInstType::SimdReduceAlu            0                       # Class of committed instruction. (Count)
board.processor.cores1.core.commitStats0.committedInstType::SimdReduceCmp            0                       # Class of committed instruction. (Count)
board.processor.cores1.core.commitStats0.committedInstType::SimdFloatReduceAdd            0                       # Class of committed instruction. (Count)
board.processor.cores1.core.commitStats0.committedInstType::SimdFloatReduceCmp            0                       # Class of committed instruction. (Count)
board.processor.cores1.core.commitStats0.committedInstType::SimdAes            0                       # Class of committed instruction. (Count)
board.processor.cores1.core.commitStats0.committedInstType::SimdAesMix            0                       # Class of committed instruction. (Count)
board.processor.cores1.core.commitStats0.committedInstType::SimdSha1Hash            0                       # Class of committed instruction. (Count)
board.processor.cores1.core.commitStats0.committedInstType::SimdSha1Hash2            0                       # Class of committed instruction. (Count)
board.processor.cores1.core.commitStats0.committedInstType::SimdSha256Hash            0                       # Class of committed instruction. (Count)
board.processor.cores1.core.commitStats0.committedInstType::SimdSha256Hash2            0                       # Class of committed instruction. (Count)
board.processor.cores1.core.commitStats0.committedInstType::SimdShaSigma2            0                       # Class of committed instruction. (Count)
board.processor.cores1.core.commitStats0.committedInstType::SimdShaSigma3            0                       # Class of committed instruction. (Count)
board.processor.cores1.core.commitStats0.committedInstType::SimdPredAlu            0                       # Class of committed instruction. (Count)
board.processor.cores1.core.commitStats0.committedInstType::Matrix            0                       # Class of committed instruction. (Count)
board.processor.cores1.core.commitStats0.committedInstType::MatrixMov            0                       # Class of committed instruction. (Count)
board.processor.cores1.core.commitStats0.committedInstType::MatrixOP            0                       # Class of committed instruction. (Count)
board.processor.cores1.core.commitStats0.committedInstType::MemRead            0                       # Class of committed instruction. (Count)
board.processor.cores1.core.commitStats0.committedInstType::MemWrite            0                       # Class of committed instruction. (Count)
board.processor.cores1.core.commitStats0.committedInstType::FloatMemRead            0                       # Class of committed instruction. (Count)
board.processor.cores1.core.commitStats0.committedInstType::FloatMemWrite            0                       # Class of committed instruction. (Count)
board.processor.cores1.core.commitStats0.committedInstType::IprAccess            0                       # Class of committed instruction. (Count)
board.processor.cores1.core.commitStats0.committedInstType::InstPrefetch            0                       # Class of committed instruction. (Count)
board.processor.cores1.core.commitStats0.committedInstType::VectorUnitStrideLoad            0                       # Class of committed instruction. (Count)
board.processor.cores1.core.commitStats0.committedInstType::VectorUnitStrideStore            0                       # Class of committed instruction. (Count)
board.processor.cores1.core.commitStats0.committedInstType::VectorUnitStrideMaskLoad            0                       # Class of committed instruction. (Count)
board.processor.cores1.core.commitStats0.committedInstType::VectorUnitStrideMaskStore            0                       # Class of committed instruction. (Count)
board.processor.cores1.core.commitStats0.committedInstType::VectorStridedLoad            0                       # Class of committed instruction. (Count)
board.processor.cores1.core.commitStats0.committedInstType::VectorStridedStore            0                       # Class of committed instruction. (Count)
board.processor.cores1.core.commitStats0.committedInstType::VectorIndexedLoad            0                       # Class of committed instruction. (Count)
board.processor.cores1.core.commitStats0.committedInstType::VectorIndexedStore            0                       # Class of committed instruction. (Count)
board.processor.cores1.core.commitStats0.committedInstType::VectorUnitStrideFaultOnlyFirstLoad            0                       # Class of committed instruction. (Count)
board.processor.cores1.core.commitStats0.committedInstType::VectorWholeRegisterLoad            0                       # Class of committed instruction. (Count)
board.processor.cores1.core.commitStats0.committedInstType::VectorWholeRegisterStore            0                       # Class of committed instruction. (Count)
board.processor.cores1.core.commitStats0.committedInstType::VectorIntegerArith            0                       # Class of committed instruction. (Count)
board.processor.cores1.core.commitStats0.committedInstType::VectorFloatArith            0                       # Class of committed instruction. (Count)
board.processor.cores1.core.commitStats0.committedInstType::VectorFloatConvert            0                       # Class of committed instruction. (Count)
board.processor.cores1.core.commitStats0.committedInstType::VectorIntegerReduce            0                       # Class of committed instruction. (Count)
board.processor.cores1.core.commitStats0.committedInstType::VectorFloatReduce            0                       # Class of committed instruction. (Count)
board.processor.cores1.core.commitStats0.committedInstType::VectorMisc            0                       # Class of committed instruction. (Count)
board.processor.cores1.core.commitStats0.committedInstType::VectorIntegerExtension            0                       # Class of committed instruction. (Count)
board.processor.cores1.core.commitStats0.committedInstType::VectorConfig            0                       # Class of committed instruction. (Count)
board.processor.cores1.core.commitStats0.committedInstType::total            0                       # Class of committed instruction. (Count)
board.processor.cores1.core.executeStats0.numInsts            0                       # Number of executed instructions (Count)
board.processor.cores1.core.executeStats0.numNop            0                       # Number of nop insts executed (Count)
board.processor.cores1.core.executeStats0.numBranches            0                       # Number of branches executed (Count)
board.processor.cores1.core.executeStats0.numLoadInsts            0                       # Number of load instructions executed (Count)
board.processor.cores1.core.executeStats0.numStoreInsts            0                       # Number of stores executed (Count)
board.processor.cores1.core.executeStats0.instRate          nan                       # Inst execution rate ((Count/Cycle))
board.processor.cores1.core.executeStats0.numFpRegWrites            0                       # Number of times the floating registers were written (Count)
board.processor.cores1.core.executeStats0.numMemRefs            0                       # Number of memory refs (Count)
board.processor.cores1.core.executeStats0.numVecAluAccesses            0                       # Number of vector alu accesses (Count)
board.processor.cores1.core.executeStats0.numDiscardedOps            0                       # Number of ops (including micro ops) which were discarded before commit (Count)
board.processor.cores1.core.fetch.nisnDist::samples            0                       # Number of instructions fetched each cycle (Total) (Count)
board.processor.cores1.core.fetch.nisnDist::mean          nan                       # Number of instructions fetched each cycle (Total) (Count)
board.processor.cores1.core.fetch.nisnDist::stdev          nan                       # Number of instructions fetched each cycle (Total) (Count)
board.processor.cores1.core.fetch.nisnDist::underflows            0                       # Number of instructions fetched each cycle (Total) (Count)
board.processor.cores1.core.fetch.nisnDist::0            0                       # Number of instructions fetched each cycle (Total) (Count)
board.processor.cores1.core.fetch.nisnDist::1            0                       # Number of instructions fetched each cycle (Total) (Count)
board.processor.cores1.core.fetch.nisnDist::2            0                       # Number of instructions fetched each cycle (Total) (Count)
board.processor.cores1.core.fetch.nisnDist::3            0                       # Number of instructions fetched each cycle (Total) (Count)
board.processor.cores1.core.fetch.nisnDist::4            0                       # Number of instructions fetched each cycle (Total) (Count)
board.processor.cores1.core.fetch.nisnDist::overflows            0                       # Number of instructions fetched each cycle (Total) (Count)
board.processor.cores1.core.fetch.nisnDist::min_value            0                       # Number of instructions fetched each cycle (Total) (Count)
board.processor.cores1.core.fetch.nisnDist::max_value            0                       # Number of instructions fetched each cycle (Total) (Count)
board.processor.cores1.core.fetch.nisnDist::total            0                       # Number of instructions fetched each cycle (Total) (Count)
board.processor.cores1.core.fetch.idleRate          nan                       # Ratio of cycles fetch was idle (Ratio)
board.processor.cores1.core.fetchStats0.numInsts            0                       # Number of instructions fetched (thread level) (Count)
board.processor.cores1.core.fetchStats0.numOps            0                       # Number of ops (including micro ops) fetched (thread level) (Count)
board.processor.cores1.core.fetchStats0.fetchRate          nan                       # Number of inst fetches per cycle ((Count/Cycle))
board.processor.cores1.core.fetchStats0.branchRate          nan                       # Number of branch fetches per cycle (Ratio)
board.processor.cores1.core.fetchStats0.numFetchSuspends            0                       # Number of times Execute suspended instruction fetching (Count)
board.processor.cores1.core.iew.idleCycles            0                       # Number of cycles IEW is idle (Cycle)
board.processor.cores1.core.iew.squashCycles            0                       # Number of cycles IEW is squashing (Cycle)
board.processor.cores1.core.iew.blockCycles            0                       # Number of cycles IEW is blocking (Cycle)
board.processor.cores1.core.iew.unblockCycles            0                       # Number of cycles IEW is unblocking (Cycle)
board.processor.cores1.core.iew.dispatchedInsts            0                       # Number of instructions dispatched to IQ (Count)
board.processor.cores1.core.iew.dispSquashedInsts            0                       # Number of squashed instructions skipped by dispatch (Count)
board.processor.cores1.core.iew.dispLoadInsts            0                       # Number of dispatched load instructions (Count)
board.processor.cores1.core.iew.dispStoreInsts            0                       # Number of dispatched store instructions (Count)
board.processor.cores1.core.iew.dispNonSpecInsts            0                       # Number of dispatched non-speculative instructions (Count)
board.processor.cores1.core.iew.iqFullEvents            0                       # Number of times the IQ has become full, causing a stall (Count)
board.processor.cores1.core.iew.lsqFullEvents            0                       # Number of times the LSQ has become full, causing a stall (Count)
board.processor.cores1.core.iew.memOrderViolationEvents            0                       # Number of memory order violations (Count)
board.processor.cores1.core.iew.predictedTakenIncorrect            0                       # Number of branches that were predicted taken incorrectly (Count)
board.processor.cores1.core.iew.predictedNotTakenIncorrect            0                       # Number of branches that were predicted not taken incorrectly (Count)
board.processor.cores1.core.iew.branchMispredicts            0                       # Number of branch mispredicts detected at execute (Count)
board.processor.cores1.core.iew.instsToCommit            0                       # Cumulative count of insts sent to commit (Count)
board.processor.cores1.core.iew.writebackCount            0                       # Cumulative count of insts written-back (Count)
board.processor.cores1.core.iew.producerInst            0                       # Number of instructions producing a value (Count)
board.processor.cores1.core.iew.consumerInst            0                       # Number of instructions consuming a value (Count)
board.processor.cores1.core.iew.wbRate            nan                       # Insts written-back per cycle ((Count/Cycle))
board.processor.cores1.core.iew.wbFanout          nan                       # Average fanout of values written-back ((Count/Count))
board.processor.cores1.core.lsq0.forwLoads            0                       # Number of loads that had data forwarded from stores (Count)
board.processor.cores1.core.lsq0.squashedLoads            0                       # Number of loads squashed (Count)
board.processor.cores1.core.lsq0.ignoredResponses            0                       # Number of memory responses ignored because the instruction is squashed (Count)
board.processor.cores1.core.lsq0.memOrderViolation            0                       # Number of memory ordering violations (Count)
board.processor.cores1.core.lsq0.squashedStores            0                       # Number of stores squashed (Count)
board.processor.cores1.core.lsq0.rescheduledLoads            0                       # Number of loads that were rescheduled (Count)
board.processor.cores1.core.lsq0.blockedByCache            0                       # Number of times an access to memory failed due to the cache being blocked (Count)
board.processor.cores1.core.mmu.dtb.readHits            0                       # read hits (Count)
board.processor.cores1.core.mmu.dtb.readMisses            0                       # read misses (Count)
board.processor.cores1.core.mmu.dtb.readAccesses            0                       # read accesses (Count)
board.processor.cores1.core.mmu.dtb.writeHits            0                       # write hits (Count)
board.processor.cores1.core.mmu.dtb.writeMisses            0                       # write misses (Count)
board.processor.cores1.core.mmu.dtb.writeAccesses            0                       # write accesses (Count)
board.processor.cores1.core.mmu.dtb.hits            0                       # Total TLB (read and write) hits (Count)
board.processor.cores1.core.mmu.dtb.misses            0                       # Total TLB (read and write) misses (Count)
board.processor.cores1.core.mmu.dtb.accesses            0                       # Total TLB (read and write) accesses (Count)
board.processor.cores1.core.mmu.dtb.walker.power_state.pwrStateResidencyTicks::UNDEFINED 182117806250                       # Cumulative time (in ticks) in various power states (Tick)
board.processor.cores1.core.mmu.itb.readHits            0                       # read hits (Count)
board.processor.cores1.core.mmu.itb.readMisses            0                       # read misses (Count)
board.processor.cores1.core.mmu.itb.readAccesses            0                       # read accesses (Count)
board.processor.cores1.core.mmu.itb.writeHits            0                       # write hits (Count)
board.processor.cores1.core.mmu.itb.writeMisses            0                       # write misses (Count)
board.processor.cores1.core.mmu.itb.writeAccesses            0                       # write accesses (Count)
board.processor.cores1.core.mmu.itb.hits            0                       # Total TLB (read and write) hits (Count)
board.processor.cores1.core.mmu.itb.misses            0                       # Total TLB (read and write) misses (Count)
board.processor.cores1.core.mmu.itb.accesses            0                       # Total TLB (read and write) accesses (Count)
board.processor.cores1.core.mmu.itb.walker.power_state.pwrStateResidencyTicks::UNDEFINED 182117806250                       # Cumulative time (in ticks) in various power states (Tick)
board.processor.cores1.core.power_state.pwrStateResidencyTicks::ON 182117806250                       # Cumulative time (in ticks) in various power states (Tick)
board.processor.cores1.core.rename.serializeStallCycles            0                       # count of cycles rename stalled for serializing inst (Cycle)
board.processor.cores1.core.rename.serializing            0                       # count of serializing insts renamed (Count)
board.processor.cores1.core.rename.tempSerializing            0                       # count of temporary serializing insts renamed (Count)
board.processor.cores1.core.rename.skidInsts            0                       # count of insts added to the skid buffer (Count)
board.processor.cores1.core.rob.reads               0                       # The number of ROB reads (Count)
board.processor.cores1.core.rob.writes              0                       # The number of ROB writes (Count)
board.processor.cores1.core.thread_0.numInsts            0                       # Number of Instructions committed (Count)
board.processor.cores1.core.thread_0.numOps            0                       # Number of Ops committed (Count)
board.processor.cores1.core.thread_0.numMemRefs            0                       # Number of Memory References (Count)
board.workload.inst.arm                             0                       # number of arm instructions executed (Count)
board.workload.inst.quiesce                         0                       # number of quiesce instructions executed (Count)

---------- End Simulation Statistics   ----------
