
---------- Begin Simulation Statistics ----------
simSeconds                                   0.592935                       # Number of seconds simulated (Second)
simTicks                                 592934646180                       # Number of ticks simulated (Tick)
finalTick                                592934646180                       # Number of ticks from beginning of simulation (restored from checkpoints and never reset) (Tick)
simFreq                                  1000000000000                       # The number of ticks per simulated second ((Tick/Second))
hostSeconds                                   1701.23                       # Real time elapsed on the host (Second)
hostTickRate                                348533305                       # The number of ticks simulated per host second (ticks/s) ((Tick/Second))
hostMemory                                    8617720                       # Number of bytes of host memory used (Byte)
simInsts                                    549684754                       # Number of instructions simulated (Count)
simOps                                      549684807                       # Number of ops (including micro ops) simulated (Count)
hostInstRate                                   323111                       # Simulator instruction rate (inst/s) ((Count/Second))
hostOpRate                                     323111                       # Simulator op (including micro ops) rate (op/s) ((Count/Second))
board.cache_hierarchy.dptw_caches0.blockedCycles::no_mshrs            0                       # number of cycles access was blocked (Cycle)
board.cache_hierarchy.dptw_caches0.blockedCycles::no_targets            0                       # number of cycles access was blocked (Cycle)
board.cache_hierarchy.dptw_caches0.blockedCauses::no_mshrs            0                       # number of times access was blocked (Count)
board.cache_hierarchy.dptw_caches0.blockedCauses::no_targets            0                       # number of times access was blocked (Count)
board.cache_hierarchy.dptw_caches0.avgBlocked::no_mshrs          nan                       # average number of cycles each access was blocked ((Cycle/Count))
board.cache_hierarchy.dptw_caches0.avgBlocked::no_targets          nan                       # average number of cycles each access was blocked ((Cycle/Count))
board.cache_hierarchy.dptw_caches0.replacements            0                       # number of replacements (Count)
board.cache_hierarchy.dptw_caches0.power_state.pwrStateResidencyTicks::UNDEFINED 592934646180                       # Cumulative time (in ticks) in various power states (Tick)
board.cache_hierarchy.dptw_caches0.tags.tagsInUse            0                       # Average ticks per tags in use ((Tick/Count))
board.cache_hierarchy.dptw_caches0.tags.totalRefs            0                       # Total number of references to valid blocks. (Count)
board.cache_hierarchy.dptw_caches0.tags.sampledRefs            0                       # Sample count of references to valid blocks. (Count)
board.cache_hierarchy.dptw_caches0.tags.avgRefs          nan                       # Average number of references to valid blocks. ((Count/Count))
board.cache_hierarchy.dptw_caches0.tags.warmupTick            0                       # The tick when the warmup percentage was hit. (Tick)
board.cache_hierarchy.dptw_caches0.tags.tagAccesses            0                       # Number of tag accesses (Count)
board.cache_hierarchy.dptw_caches0.tags.dataAccesses            0                       # Number of data accesses (Count)
board.cache_hierarchy.dptw_caches0.tags.power_state.pwrStateResidencyTicks::UNDEFINED 592934646180                       # Cumulative time (in ticks) in various power states (Tick)
board.cache_hierarchy.dptw_caches1.blockedCycles::no_mshrs            0                       # number of cycles access was blocked (Cycle)
board.cache_hierarchy.dptw_caches1.blockedCycles::no_targets            0                       # number of cycles access was blocked (Cycle)
board.cache_hierarchy.dptw_caches1.blockedCauses::no_mshrs            0                       # number of times access was blocked (Count)
board.cache_hierarchy.dptw_caches1.blockedCauses::no_targets            0                       # number of times access was blocked (Count)
board.cache_hierarchy.dptw_caches1.avgBlocked::no_mshrs          nan                       # average number of cycles each access was blocked ((Cycle/Count))
board.cache_hierarchy.dptw_caches1.avgBlocked::no_targets          nan                       # average number of cycles each access was blocked ((Cycle/Count))
board.cache_hierarchy.dptw_caches1.replacements            0                       # number of replacements (Count)
board.cache_hierarchy.dptw_caches1.power_state.pwrStateResidencyTicks::UNDEFINED 592934646180                       # Cumulative time (in ticks) in various power states (Tick)
board.cache_hierarchy.dptw_caches1.tags.tagsInUse            0                       # Average ticks per tags in use ((Tick/Count))
board.cache_hierarchy.dptw_caches1.tags.totalRefs            0                       # Total number of references to valid blocks. (Count)
board.cache_hierarchy.dptw_caches1.tags.sampledRefs            0                       # Sample count of references to valid blocks. (Count)
board.cache_hierarchy.dptw_caches1.tags.avgRefs          nan                       # Average number of references to valid blocks. ((Count/Count))
board.cache_hierarchy.dptw_caches1.tags.warmupTick            0                       # The tick when the warmup percentage was hit. (Tick)
board.cache_hierarchy.dptw_caches1.tags.tagAccesses            0                       # Number of tag accesses (Count)
board.cache_hierarchy.dptw_caches1.tags.dataAccesses            0                       # Number of data accesses (Count)
board.cache_hierarchy.dptw_caches1.tags.power_state.pwrStateResidencyTicks::UNDEFINED 592934646180                       # Cumulative time (in ticks) in various power states (Tick)
board.cache_hierarchy.iptw_caches0.blockedCycles::no_mshrs            0                       # number of cycles access was blocked (Cycle)
board.cache_hierarchy.iptw_caches0.blockedCycles::no_targets            0                       # number of cycles access was blocked (Cycle)
board.cache_hierarchy.iptw_caches0.blockedCauses::no_mshrs            0                       # number of times access was blocked (Count)
board.cache_hierarchy.iptw_caches0.blockedCauses::no_targets            0                       # number of times access was blocked (Count)
board.cache_hierarchy.iptw_caches0.avgBlocked::no_mshrs          nan                       # average number of cycles each access was blocked ((Cycle/Count))
board.cache_hierarchy.iptw_caches0.avgBlocked::no_targets          nan                       # average number of cycles each access was blocked ((Cycle/Count))
board.cache_hierarchy.iptw_caches0.replacements            0                       # number of replacements (Count)
board.cache_hierarchy.iptw_caches0.power_state.pwrStateResidencyTicks::UNDEFINED 592934646180                       # Cumulative time (in ticks) in various power states (Tick)
board.cache_hierarchy.iptw_caches0.tags.tagsInUse            0                       # Average ticks per tags in use ((Tick/Count))
board.cache_hierarchy.iptw_caches0.tags.totalRefs            0                       # Total number of references to valid blocks. (Count)
board.cache_hierarchy.iptw_caches0.tags.sampledRefs            0                       # Sample count of references to valid blocks. (Count)
board.cache_hierarchy.iptw_caches0.tags.avgRefs          nan                       # Average number of references to valid blocks. ((Count/Count))
board.cache_hierarchy.iptw_caches0.tags.warmupTick            0                       # The tick when the warmup percentage was hit. (Tick)
board.cache_hierarchy.iptw_caches0.tags.tagAccesses            0                       # Number of tag accesses (Count)
board.cache_hierarchy.iptw_caches0.tags.dataAccesses            0                       # Number of data accesses (Count)
board.cache_hierarchy.iptw_caches0.tags.power_state.pwrStateResidencyTicks::UNDEFINED 592934646180                       # Cumulative time (in ticks) in various power states (Tick)
board.cache_hierarchy.iptw_caches1.blockedCycles::no_mshrs            0                       # number of cycles access was blocked (Cycle)
board.cache_hierarchy.iptw_caches1.blockedCycles::no_targets            0                       # number of cycles access was blocked (Cycle)
board.cache_hierarchy.iptw_caches1.blockedCauses::no_mshrs            0                       # number of times access was blocked (Count)
board.cache_hierarchy.iptw_caches1.blockedCauses::no_targets            0                       # number of times access was blocked (Count)
board.cache_hierarchy.iptw_caches1.avgBlocked::no_mshrs          nan                       # average number of cycles each access was blocked ((Cycle/Count))
board.cache_hierarchy.iptw_caches1.avgBlocked::no_targets          nan                       # average number of cycles each access was blocked ((Cycle/Count))
board.cache_hierarchy.iptw_caches1.replacements            0                       # number of replacements (Count)
board.cache_hierarchy.iptw_caches1.power_state.pwrStateResidencyTicks::UNDEFINED 592934646180                       # Cumulative time (in ticks) in various power states (Tick)
board.cache_hierarchy.iptw_caches1.tags.tagsInUse            0                       # Average ticks per tags in use ((Tick/Count))
board.cache_hierarchy.iptw_caches1.tags.totalRefs            0                       # Total number of references to valid blocks. (Count)
board.cache_hierarchy.iptw_caches1.tags.sampledRefs            0                       # Sample count of references to valid blocks. (Count)
board.cache_hierarchy.iptw_caches1.tags.avgRefs          nan                       # Average number of references to valid blocks. ((Count/Count))
board.cache_hierarchy.iptw_caches1.tags.warmupTick            0                       # The tick when the warmup percentage was hit. (Tick)
board.cache_hierarchy.iptw_caches1.tags.tagAccesses            0                       # Number of tag accesses (Count)
board.cache_hierarchy.iptw_caches1.tags.dataAccesses            0                       # Number of data accesses (Count)
board.cache_hierarchy.iptw_caches1.tags.power_state.pwrStateResidencyTicks::UNDEFINED 592934646180                       # Cumulative time (in ticks) in various power states (Tick)
board.cache_hierarchy.l1dcaches0.demandHits::processor.cores0.core.data    156751562                       # number of demand (read+write) hits (Count)
board.cache_hierarchy.l1dcaches0.demandHits::total    156751562                       # number of demand (read+write) hits (Count)
board.cache_hierarchy.l1dcaches0.overallHits::processor.cores0.core.data    156751562                       # number of overall hits (Count)
board.cache_hierarchy.l1dcaches0.overallHits::total    156751562                       # number of overall hits (Count)
board.cache_hierarchy.l1dcaches0.demandMisses::processor.cores0.core.data     51299838                       # number of demand (read+write) misses (Count)
board.cache_hierarchy.l1dcaches0.demandMisses::total     51299838                       # number of demand (read+write) misses (Count)
board.cache_hierarchy.l1dcaches0.overallMisses::processor.cores0.core.data     51299838                       # number of overall misses (Count)
board.cache_hierarchy.l1dcaches0.overallMisses::total     51299838                       # number of overall misses (Count)
board.cache_hierarchy.l1dcaches0.demandMissLatency::processor.cores0.core.data 875558011812                       # number of demand (read+write) miss ticks (Tick)
board.cache_hierarchy.l1dcaches0.demandMissLatency::total 875558011812                       # number of demand (read+write) miss ticks (Tick)
board.cache_hierarchy.l1dcaches0.overallMissLatency::processor.cores0.core.data 875558011812                       # number of overall miss ticks (Tick)
board.cache_hierarchy.l1dcaches0.overallMissLatency::total 875558011812                       # number of overall miss ticks (Tick)
board.cache_hierarchy.l1dcaches0.demandAccesses::processor.cores0.core.data    208051400                       # number of demand (read+write) accesses (Count)
board.cache_hierarchy.l1dcaches0.demandAccesses::total    208051400                       # number of demand (read+write) accesses (Count)
board.cache_hierarchy.l1dcaches0.overallAccesses::processor.cores0.core.data    208051400                       # number of overall (read+write) accesses (Count)
board.cache_hierarchy.l1dcaches0.overallAccesses::total    208051400                       # number of overall (read+write) accesses (Count)
board.cache_hierarchy.l1dcaches0.demandMissRate::processor.cores0.core.data     0.246573                       # miss rate for demand accesses (Ratio)
board.cache_hierarchy.l1dcaches0.demandMissRate::total     0.246573                       # miss rate for demand accesses (Ratio)
board.cache_hierarchy.l1dcaches0.overallMissRate::processor.cores0.core.data     0.246573                       # miss rate for overall accesses (Ratio)
board.cache_hierarchy.l1dcaches0.overallMissRate::total     0.246573                       # miss rate for overall accesses (Ratio)
board.cache_hierarchy.l1dcaches0.demandAvgMissLatency::processor.cores0.core.data 17067.461535                       # average overall miss latency in ticks ((Tick/Count))
board.cache_hierarchy.l1dcaches0.demandAvgMissLatency::total 17067.461535                       # average overall miss latency in ticks ((Tick/Count))
board.cache_hierarchy.l1dcaches0.overallAvgMissLatency::processor.cores0.core.data 17067.461535                       # average overall miss latency ((Tick/Count))
board.cache_hierarchy.l1dcaches0.overallAvgMissLatency::total 17067.461535                       # average overall miss latency ((Tick/Count))
board.cache_hierarchy.l1dcaches0.blockedCycles::no_mshrs           35                       # number of cycles access was blocked (Cycle)
board.cache_hierarchy.l1dcaches0.blockedCycles::no_targets          869                       # number of cycles access was blocked (Cycle)
board.cache_hierarchy.l1dcaches0.blockedCauses::no_mshrs            4                       # number of times access was blocked (Count)
board.cache_hierarchy.l1dcaches0.blockedCauses::no_targets           23                       # number of times access was blocked (Count)
board.cache_hierarchy.l1dcaches0.avgBlocked::no_mshrs     8.750000                       # average number of cycles each access was blocked ((Cycle/Count))
board.cache_hierarchy.l1dcaches0.avgBlocked::no_targets    37.782609                       # average number of cycles each access was blocked ((Cycle/Count))
board.cache_hierarchy.l1dcaches0.writebacks::writebacks     22890623                       # number of writebacks (Count)
board.cache_hierarchy.l1dcaches0.writebacks::total     22890623                       # number of writebacks (Count)
board.cache_hierarchy.l1dcaches0.demandMshrHits::processor.cores0.core.data     34265984                       # number of demand (read+write) MSHR hits (Count)
board.cache_hierarchy.l1dcaches0.demandMshrHits::total     34265984                       # number of demand (read+write) MSHR hits (Count)
board.cache_hierarchy.l1dcaches0.overallMshrHits::processor.cores0.core.data     34265984                       # number of overall MSHR hits (Count)
board.cache_hierarchy.l1dcaches0.overallMshrHits::total     34265984                       # number of overall MSHR hits (Count)
board.cache_hierarchy.l1dcaches0.demandMshrMisses::processor.cores0.core.data     17033854                       # number of demand (read+write) MSHR misses (Count)
board.cache_hierarchy.l1dcaches0.demandMshrMisses::total     17033854                       # number of demand (read+write) MSHR misses (Count)
board.cache_hierarchy.l1dcaches0.overallMshrMisses::cache_hierarchy.l1dcaches0.prefetcher      7726119                       # number of overall MSHR misses (Count)
board.cache_hierarchy.l1dcaches0.overallMshrMisses::processor.cores0.core.data     17033854                       # number of overall MSHR misses (Count)
board.cache_hierarchy.l1dcaches0.overallMshrMisses::total     24759973                       # number of overall MSHR misses (Count)
board.cache_hierarchy.l1dcaches0.demandMshrMissLatency::processor.cores0.core.data 303606366099                       # number of demand (read+write) MSHR miss ticks (Tick)
board.cache_hierarchy.l1dcaches0.demandMshrMissLatency::total 303606366099                       # number of demand (read+write) MSHR miss ticks (Tick)
board.cache_hierarchy.l1dcaches0.overallMshrMissLatency::cache_hierarchy.l1dcaches0.prefetcher 118475892590                       # number of overall MSHR miss ticks (Tick)
board.cache_hierarchy.l1dcaches0.overallMshrMissLatency::processor.cores0.core.data 303606366099                       # number of overall MSHR miss ticks (Tick)
board.cache_hierarchy.l1dcaches0.overallMshrMissLatency::total 422082258689                       # number of overall MSHR miss ticks (Tick)
board.cache_hierarchy.l1dcaches0.demandMshrMissRate::processor.cores0.core.data     0.081873                       # mshr miss ratio for demand accesses (Ratio)
board.cache_hierarchy.l1dcaches0.demandMshrMissRate::total     0.081873                       # mshr miss ratio for demand accesses (Ratio)
board.cache_hierarchy.l1dcaches0.overallMshrMissRate::cache_hierarchy.l1dcaches0.prefetcher          inf                       # mshr miss ratio for overall accesses (Ratio)
board.cache_hierarchy.l1dcaches0.overallMshrMissRate::processor.cores0.core.data     0.081873                       # mshr miss ratio for overall accesses (Ratio)
board.cache_hierarchy.l1dcaches0.overallMshrMissRate::total     0.119009                       # mshr miss ratio for overall accesses (Ratio)
board.cache_hierarchy.l1dcaches0.demandAvgMshrMissLatency::processor.cores0.core.data 17823.703673                       # average overall mshr miss latency ((Tick/Count))
board.cache_hierarchy.l1dcaches0.demandAvgMshrMissLatency::total 17823.703673                       # average overall mshr miss latency ((Tick/Count))
board.cache_hierarchy.l1dcaches0.overallAvgMshrMissLatency::cache_hierarchy.l1dcaches0.prefetcher 15334.463861                       # average overall mshr miss latency ((Tick/Count))
board.cache_hierarchy.l1dcaches0.overallAvgMshrMissLatency::processor.cores0.core.data 17823.703673                       # average overall mshr miss latency ((Tick/Count))
board.cache_hierarchy.l1dcaches0.overallAvgMshrMissLatency::total 17046.959570                       # average overall mshr miss latency ((Tick/Count))
board.cache_hierarchy.l1dcaches0.replacements     24456288                       # number of replacements (Count)
board.cache_hierarchy.l1dcaches0.HardPFReq.mshrMisses::cache_hierarchy.l1dcaches0.prefetcher      7726119                       # number of HardPFReq MSHR misses (Count)
board.cache_hierarchy.l1dcaches0.HardPFReq.mshrMisses::total      7726119                       # number of HardPFReq MSHR misses (Count)
board.cache_hierarchy.l1dcaches0.HardPFReq.mshrMissLatency::cache_hierarchy.l1dcaches0.prefetcher 118475892590                       # number of HardPFReq MSHR miss ticks (Tick)
board.cache_hierarchy.l1dcaches0.HardPFReq.mshrMissLatency::total 118475892590                       # number of HardPFReq MSHR miss ticks (Tick)
board.cache_hierarchy.l1dcaches0.HardPFReq.mshrMissRate::cache_hierarchy.l1dcaches0.prefetcher          inf                       # mshr miss rate for HardPFReq accesses (Ratio)
board.cache_hierarchy.l1dcaches0.HardPFReq.mshrMissRate::total          inf                       # mshr miss rate for HardPFReq accesses (Ratio)
board.cache_hierarchy.l1dcaches0.HardPFReq.avgMshrMissLatency::cache_hierarchy.l1dcaches0.prefetcher 15334.463861                       # average HardPFReq mshr miss latency ((Tick/Count))
board.cache_hierarchy.l1dcaches0.HardPFReq.avgMshrMissLatency::total 15334.463861                       # average HardPFReq mshr miss latency ((Tick/Count))
board.cache_hierarchy.l1dcaches0.LoadLockedReq.hits::processor.cores0.core.data           40                       # number of LoadLockedReq hits (Count)
board.cache_hierarchy.l1dcaches0.LoadLockedReq.hits::total           40                       # number of LoadLockedReq hits (Count)
board.cache_hierarchy.l1dcaches0.LoadLockedReq.misses::processor.cores0.core.data            9                       # number of LoadLockedReq misses (Count)
board.cache_hierarchy.l1dcaches0.LoadLockedReq.misses::total            9                       # number of LoadLockedReq misses (Count)
board.cache_hierarchy.l1dcaches0.LoadLockedReq.missLatency::processor.cores0.core.data      1130520                       # number of LoadLockedReq miss ticks (Tick)
board.cache_hierarchy.l1dcaches0.LoadLockedReq.missLatency::total      1130520                       # number of LoadLockedReq miss ticks (Tick)
board.cache_hierarchy.l1dcaches0.LoadLockedReq.accesses::processor.cores0.core.data           49                       # number of LoadLockedReq accesses(hits+misses) (Count)
board.cache_hierarchy.l1dcaches0.LoadLockedReq.accesses::total           49                       # number of LoadLockedReq accesses(hits+misses) (Count)
board.cache_hierarchy.l1dcaches0.LoadLockedReq.missRate::processor.cores0.core.data     0.183673                       # miss rate for LoadLockedReq accesses (Ratio)
board.cache_hierarchy.l1dcaches0.LoadLockedReq.missRate::total     0.183673                       # miss rate for LoadLockedReq accesses (Ratio)
board.cache_hierarchy.l1dcaches0.LoadLockedReq.avgMissLatency::processor.cores0.core.data 125613.333333                       # average LoadLockedReq miss latency ((Tick/Count))
board.cache_hierarchy.l1dcaches0.LoadLockedReq.avgMissLatency::total 125613.333333                       # average LoadLockedReq miss latency ((Tick/Count))
board.cache_hierarchy.l1dcaches0.LoadLockedReq.mshrHits::processor.cores0.core.data            7                       # number of LoadLockedReq MSHR hits (Count)
board.cache_hierarchy.l1dcaches0.LoadLockedReq.mshrHits::total            7                       # number of LoadLockedReq MSHR hits (Count)
board.cache_hierarchy.l1dcaches0.LoadLockedReq.mshrMisses::processor.cores0.core.data            2                       # number of LoadLockedReq MSHR misses (Count)
board.cache_hierarchy.l1dcaches0.LoadLockedReq.mshrMisses::total            2                       # number of LoadLockedReq MSHR misses (Count)
board.cache_hierarchy.l1dcaches0.LoadLockedReq.mshrMissLatency::processor.cores0.core.data       179780                       # number of LoadLockedReq MSHR miss ticks (Tick)
board.cache_hierarchy.l1dcaches0.LoadLockedReq.mshrMissLatency::total       179780                       # number of LoadLockedReq MSHR miss ticks (Tick)
board.cache_hierarchy.l1dcaches0.LoadLockedReq.mshrMissRate::processor.cores0.core.data     0.040816                       # mshr miss rate for LoadLockedReq accesses (Ratio)
board.cache_hierarchy.l1dcaches0.LoadLockedReq.mshrMissRate::total     0.040816                       # mshr miss rate for LoadLockedReq accesses (Ratio)
board.cache_hierarchy.l1dcaches0.LoadLockedReq.avgMshrMissLatency::processor.cores0.core.data        89890                       # average LoadLockedReq mshr miss latency ((Tick/Count))
board.cache_hierarchy.l1dcaches0.LoadLockedReq.avgMshrMissLatency::total        89890                       # average LoadLockedReq mshr miss latency ((Tick/Count))
board.cache_hierarchy.l1dcaches0.ReadReq.hits::processor.cores0.core.data     87955535                       # number of ReadReq hits (Count)
board.cache_hierarchy.l1dcaches0.ReadReq.hits::total     87955535                       # number of ReadReq hits (Count)
board.cache_hierarchy.l1dcaches0.ReadReq.misses::processor.cores0.core.data     17650742                       # number of ReadReq misses (Count)
board.cache_hierarchy.l1dcaches0.ReadReq.misses::total     17650742                       # number of ReadReq misses (Count)
board.cache_hierarchy.l1dcaches0.ReadReq.missLatency::processor.cores0.core.data 384304559060                       # number of ReadReq miss ticks (Tick)
board.cache_hierarchy.l1dcaches0.ReadReq.missLatency::total 384304559060                       # number of ReadReq miss ticks (Tick)
board.cache_hierarchy.l1dcaches0.ReadReq.accesses::processor.cores0.core.data    105606277                       # number of ReadReq accesses(hits+misses) (Count)
board.cache_hierarchy.l1dcaches0.ReadReq.accesses::total    105606277                       # number of ReadReq accesses(hits+misses) (Count)
board.cache_hierarchy.l1dcaches0.ReadReq.missRate::processor.cores0.core.data     0.167137                       # miss rate for ReadReq accesses (Ratio)
board.cache_hierarchy.l1dcaches0.ReadReq.missRate::total     0.167137                       # miss rate for ReadReq accesses (Ratio)
board.cache_hierarchy.l1dcaches0.ReadReq.avgMissLatency::processor.cores0.core.data 21772.714091                       # average ReadReq miss latency ((Tick/Count))
board.cache_hierarchy.l1dcaches0.ReadReq.avgMissLatency::total 21772.714091                       # average ReadReq miss latency ((Tick/Count))
board.cache_hierarchy.l1dcaches0.ReadReq.mshrHits::processor.cores0.core.data     10719097                       # number of ReadReq MSHR hits (Count)
board.cache_hierarchy.l1dcaches0.ReadReq.mshrHits::total     10719097                       # number of ReadReq MSHR hits (Count)
board.cache_hierarchy.l1dcaches0.ReadReq.mshrMisses::processor.cores0.core.data      6931645                       # number of ReadReq MSHR misses (Count)
board.cache_hierarchy.l1dcaches0.ReadReq.mshrMisses::total      6931645                       # number of ReadReq MSHR misses (Count)
board.cache_hierarchy.l1dcaches0.ReadReq.mshrMissLatency::processor.cores0.core.data 131384345020                       # number of ReadReq MSHR miss ticks (Tick)
board.cache_hierarchy.l1dcaches0.ReadReq.mshrMissLatency::total 131384345020                       # number of ReadReq MSHR miss ticks (Tick)
board.cache_hierarchy.l1dcaches0.ReadReq.mshrMissRate::processor.cores0.core.data     0.065637                       # mshr miss rate for ReadReq accesses (Ratio)
board.cache_hierarchy.l1dcaches0.ReadReq.mshrMissRate::total     0.065637                       # mshr miss rate for ReadReq accesses (Ratio)
board.cache_hierarchy.l1dcaches0.ReadReq.avgMshrMissLatency::processor.cores0.core.data 18954.280697                       # average ReadReq mshr miss latency ((Tick/Count))
board.cache_hierarchy.l1dcaches0.ReadReq.avgMshrMissLatency::total 18954.280697                       # average ReadReq mshr miss latency ((Tick/Count))
board.cache_hierarchy.l1dcaches0.StoreCondReq.hits::processor.cores0.core.data           43                       # number of StoreCondReq hits (Count)
board.cache_hierarchy.l1dcaches0.StoreCondReq.hits::total           43                       # number of StoreCondReq hits (Count)
board.cache_hierarchy.l1dcaches0.StoreCondReq.accesses::processor.cores0.core.data           43                       # number of StoreCondReq accesses(hits+misses) (Count)
board.cache_hierarchy.l1dcaches0.StoreCondReq.accesses::total           43                       # number of StoreCondReq accesses(hits+misses) (Count)
board.cache_hierarchy.l1dcaches0.SwapReq.hits::processor.cores0.core.data           78                       # number of SwapReq hits (Count)
board.cache_hierarchy.l1dcaches0.SwapReq.hits::total           78                       # number of SwapReq hits (Count)
board.cache_hierarchy.l1dcaches0.SwapReq.misses::processor.cores0.core.data            1                       # number of SwapReq misses (Count)
board.cache_hierarchy.l1dcaches0.SwapReq.misses::total            1                       # number of SwapReq misses (Count)
board.cache_hierarchy.l1dcaches0.SwapReq.missLatency::processor.cores0.core.data        63780                       # number of SwapReq miss ticks (Tick)
board.cache_hierarchy.l1dcaches0.SwapReq.missLatency::total        63780                       # number of SwapReq miss ticks (Tick)
board.cache_hierarchy.l1dcaches0.SwapReq.accesses::processor.cores0.core.data           79                       # number of SwapReq accesses(hits+misses) (Count)
board.cache_hierarchy.l1dcaches0.SwapReq.accesses::total           79                       # number of SwapReq accesses(hits+misses) (Count)
board.cache_hierarchy.l1dcaches0.SwapReq.missRate::processor.cores0.core.data     0.012658                       # miss rate for SwapReq accesses (Ratio)
board.cache_hierarchy.l1dcaches0.SwapReq.missRate::total     0.012658                       # miss rate for SwapReq accesses (Ratio)
board.cache_hierarchy.l1dcaches0.SwapReq.avgMissLatency::processor.cores0.core.data        63780                       # average SwapReq miss latency ((Tick/Count))
board.cache_hierarchy.l1dcaches0.SwapReq.avgMissLatency::total        63780                       # average SwapReq miss latency ((Tick/Count))
board.cache_hierarchy.l1dcaches0.SwapReq.mshrMisses::processor.cores0.core.data            1                       # number of SwapReq MSHR misses (Count)
board.cache_hierarchy.l1dcaches0.SwapReq.mshrMisses::total            1                       # number of SwapReq MSHR misses (Count)
board.cache_hierarchy.l1dcaches0.SwapReq.mshrMissLatency::processor.cores0.core.data        61800                       # number of SwapReq MSHR miss ticks (Tick)
board.cache_hierarchy.l1dcaches0.SwapReq.mshrMissLatency::total        61800                       # number of SwapReq MSHR miss ticks (Tick)
board.cache_hierarchy.l1dcaches0.SwapReq.mshrMissRate::processor.cores0.core.data     0.012658                       # mshr miss rate for SwapReq accesses (Ratio)
board.cache_hierarchy.l1dcaches0.SwapReq.mshrMissRate::total     0.012658                       # mshr miss rate for SwapReq accesses (Ratio)
board.cache_hierarchy.l1dcaches0.SwapReq.avgMshrMissLatency::processor.cores0.core.data        61800                       # average SwapReq mshr miss latency ((Tick/Count))
board.cache_hierarchy.l1dcaches0.SwapReq.avgMshrMissLatency::total        61800                       # average SwapReq mshr miss latency ((Tick/Count))
board.cache_hierarchy.l1dcaches0.WriteReq.hits::processor.cores0.core.data     68796027                       # number of WriteReq hits (Count)
board.cache_hierarchy.l1dcaches0.WriteReq.hits::total     68796027                       # number of WriteReq hits (Count)
board.cache_hierarchy.l1dcaches0.WriteReq.misses::processor.cores0.core.data     33649096                       # number of WriteReq misses (Count)
board.cache_hierarchy.l1dcaches0.WriteReq.misses::total     33649096                       # number of WriteReq misses (Count)
board.cache_hierarchy.l1dcaches0.WriteReq.missLatency::processor.cores0.core.data 491253452752                       # number of WriteReq miss ticks (Tick)
board.cache_hierarchy.l1dcaches0.WriteReq.missLatency::total 491253452752                       # number of WriteReq miss ticks (Tick)
board.cache_hierarchy.l1dcaches0.WriteReq.accesses::processor.cores0.core.data    102445123                       # number of WriteReq accesses(hits+misses) (Count)
board.cache_hierarchy.l1dcaches0.WriteReq.accesses::total    102445123                       # number of WriteReq accesses(hits+misses) (Count)
board.cache_hierarchy.l1dcaches0.WriteReq.missRate::processor.cores0.core.data     0.328460                       # miss rate for WriteReq accesses (Ratio)
board.cache_hierarchy.l1dcaches0.WriteReq.missRate::total     0.328460                       # miss rate for WriteReq accesses (Ratio)
board.cache_hierarchy.l1dcaches0.WriteReq.avgMissLatency::processor.cores0.core.data 14599.306108                       # average WriteReq miss latency ((Tick/Count))
board.cache_hierarchy.l1dcaches0.WriteReq.avgMissLatency::total 14599.306108                       # average WriteReq miss latency ((Tick/Count))
board.cache_hierarchy.l1dcaches0.WriteReq.mshrHits::processor.cores0.core.data     23546887                       # number of WriteReq MSHR hits (Count)
board.cache_hierarchy.l1dcaches0.WriteReq.mshrHits::total     23546887                       # number of WriteReq MSHR hits (Count)
board.cache_hierarchy.l1dcaches0.WriteReq.mshrMisses::processor.cores0.core.data     10102209                       # number of WriteReq MSHR misses (Count)
board.cache_hierarchy.l1dcaches0.WriteReq.mshrMisses::total     10102209                       # number of WriteReq MSHR misses (Count)
board.cache_hierarchy.l1dcaches0.WriteReq.mshrMissLatency::processor.cores0.core.data 172222021079                       # number of WriteReq MSHR miss ticks (Tick)
board.cache_hierarchy.l1dcaches0.WriteReq.mshrMissLatency::total 172222021079                       # number of WriteReq MSHR miss ticks (Tick)
board.cache_hierarchy.l1dcaches0.WriteReq.mshrMissRate::processor.cores0.core.data     0.098611                       # mshr miss rate for WriteReq accesses (Ratio)
board.cache_hierarchy.l1dcaches0.WriteReq.mshrMissRate::total     0.098611                       # mshr miss rate for WriteReq accesses (Ratio)
board.cache_hierarchy.l1dcaches0.WriteReq.avgMshrMissLatency::processor.cores0.core.data 17047.956648                       # average WriteReq mshr miss latency ((Tick/Count))
board.cache_hierarchy.l1dcaches0.WriteReq.avgMshrMissLatency::total 17047.956648                       # average WriteReq mshr miss latency ((Tick/Count))
board.cache_hierarchy.l1dcaches0.power_state.pwrStateResidencyTicks::UNDEFINED 592934646180                       # Cumulative time (in ticks) in various power states (Tick)
board.cache_hierarchy.l1dcaches0.prefetcher.demandMshrMisses     17033854                       # demands not covered by prefetchs (Count)
board.cache_hierarchy.l1dcaches0.prefetcher.pfIssued     11826369                       # number of hwpf issued (Count)
board.cache_hierarchy.l1dcaches0.prefetcher.pfUnused       458463                       # number of HardPF blocks evicted w/o reference (Count)
board.cache_hierarchy.l1dcaches0.prefetcher.pfUseful      8736636                       # number of useful prefetch (Count)
board.cache_hierarchy.l1dcaches0.prefetcher.pfUsefulButMiss      1564936                       # number of hit on prefetch but cache block is not in an usable state (Count)
board.cache_hierarchy.l1dcaches0.prefetcher.accuracy     0.738742                       # accuracy of the prefetcher (Count)
board.cache_hierarchy.l1dcaches0.prefetcher.coverage     0.339017                       # coverage brought by this prefetcher (Count)
board.cache_hierarchy.l1dcaches0.prefetcher.pfHitInCache      3194262                       # number of prefetches hitting in cache (Count)
board.cache_hierarchy.l1dcaches0.prefetcher.pfHitInMSHR       905811                       # number of prefetches hitting in a MSHR (Count)
board.cache_hierarchy.l1dcaches0.prefetcher.pfHitInWB          177                       # number of prefetches hit in the Write Buffer (Count)
board.cache_hierarchy.l1dcaches0.prefetcher.pfLate      4100250                       # number of late prefetches (hitting in cache, MSHR or WB) (Count)
board.cache_hierarchy.l1dcaches0.prefetcher.pfIdentified     29692599                       # number of prefetch candidates identified (Count)
board.cache_hierarchy.l1dcaches0.prefetcher.pfBufferHit     13376254                       # number of redundant prefetches already in prefetch queue (Count)
board.cache_hierarchy.l1dcaches0.prefetcher.pfInCache            0                       # number of redundant prefetches already in cache/mshr dropped (Count)
board.cache_hierarchy.l1dcaches0.prefetcher.pfRemovedDemand       159493                       # number of prefetches dropped due to a demand for the same address (Count)
board.cache_hierarchy.l1dcaches0.prefetcher.pfRemovedFull            0                       # number of prefetches dropped due to prefetch queue size (Count)
board.cache_hierarchy.l1dcaches0.prefetcher.pfSpanPage      6892873                       # number of prefetches that crossed the page (Count)
board.cache_hierarchy.l1dcaches0.prefetcher.pfUsefulSpanPage       311393                       # number of prefetches that is useful and crossed the page (Count)
board.cache_hierarchy.l1dcaches0.prefetcher.power_state.pwrStateResidencyTicks::UNDEFINED 592934646180                       # Cumulative time (in ticks) in various power states (Tick)
board.cache_hierarchy.l1dcaches0.tags.tagsInUse   511.966274                       # Average ticks per tags in use ((Tick/Count))
board.cache_hierarchy.l1dcaches0.tags.totalRefs    183046010                       # Total number of references to valid blocks. (Count)
board.cache_hierarchy.l1dcaches0.tags.sampledRefs     24456800                       # Sample count of references to valid blocks. (Count)
board.cache_hierarchy.l1dcaches0.tags.avgRefs     7.484463                       # Average number of references to valid blocks. ((Count/Count))
board.cache_hierarchy.l1dcaches0.tags.warmupTick       153020                       # The tick when the warmup percentage was hit. (Tick)
board.cache_hierarchy.l1dcaches0.tags.occupancies::cache_hierarchy.l1dcaches0.prefetcher   162.422240                       # Average occupied blocks per tick, per requestor ((Count/Tick))
board.cache_hierarchy.l1dcaches0.tags.occupancies::processor.cores0.core.data   349.544034                       # Average occupied blocks per tick, per requestor ((Count/Tick))
board.cache_hierarchy.l1dcaches0.tags.avgOccs::cache_hierarchy.l1dcaches0.prefetcher     0.317231                       # Average percentage of cache occupancy ((Ratio/Tick))
board.cache_hierarchy.l1dcaches0.tags.avgOccs::processor.cores0.core.data     0.682703                       # Average percentage of cache occupancy ((Ratio/Tick))
board.cache_hierarchy.l1dcaches0.tags.avgOccs::total     0.999934                       # Average percentage of cache occupancy ((Ratio/Tick))
board.cache_hierarchy.l1dcaches0.tags.occupanciesTaskId::1022          145                       # Occupied blocks per task id (Count)
board.cache_hierarchy.l1dcaches0.tags.occupanciesTaskId::1024          367                       # Occupied blocks per task id (Count)
board.cache_hierarchy.l1dcaches0.tags.ageTaskId_1022::0           24                       # Occupied blocks per task id, per block age (Count)
board.cache_hierarchy.l1dcaches0.tags.ageTaskId_1022::1           90                       # Occupied blocks per task id, per block age (Count)
board.cache_hierarchy.l1dcaches0.tags.ageTaskId_1022::2           31                       # Occupied blocks per task id, per block age (Count)
board.cache_hierarchy.l1dcaches0.tags.ageTaskId_1024::0           59                       # Occupied blocks per task id, per block age (Count)
board.cache_hierarchy.l1dcaches0.tags.ageTaskId_1024::1          182                       # Occupied blocks per task id, per block age (Count)
board.cache_hierarchy.l1dcaches0.tags.ageTaskId_1024::2          126                       # Occupied blocks per task id, per block age (Count)
board.cache_hierarchy.l1dcaches0.tags.ratioOccsTaskId::1022     0.283203                       # Ratio of occupied blocks and all blocks, per task id (Ratio)
board.cache_hierarchy.l1dcaches0.tags.ratioOccsTaskId::1024     0.716797                       # Ratio of occupied blocks and all blocks, per task id (Ratio)
board.cache_hierarchy.l1dcaches0.tags.tagAccesses   1688869368                       # Number of tag accesses (Count)
board.cache_hierarchy.l1dcaches0.tags.dataAccesses   1688869368                       # Number of data accesses (Count)
board.cache_hierarchy.l1dcaches0.tags.power_state.pwrStateResidencyTicks::UNDEFINED 592934646180                       # Cumulative time (in ticks) in various power states (Tick)
board.cache_hierarchy.l1dcaches1.blockedCycles::no_mshrs            0                       # number of cycles access was blocked (Cycle)
board.cache_hierarchy.l1dcaches1.blockedCycles::no_targets            0                       # number of cycles access was blocked (Cycle)
board.cache_hierarchy.l1dcaches1.blockedCauses::no_mshrs            0                       # number of times access was blocked (Count)
board.cache_hierarchy.l1dcaches1.blockedCauses::no_targets            0                       # number of times access was blocked (Count)
board.cache_hierarchy.l1dcaches1.avgBlocked::no_mshrs          nan                       # average number of cycles each access was blocked ((Cycle/Count))
board.cache_hierarchy.l1dcaches1.avgBlocked::no_targets          nan                       # average number of cycles each access was blocked ((Cycle/Count))
board.cache_hierarchy.l1dcaches1.replacements            0                       # number of replacements (Count)
board.cache_hierarchy.l1dcaches1.power_state.pwrStateResidencyTicks::UNDEFINED 592934646180                       # Cumulative time (in ticks) in various power states (Tick)
board.cache_hierarchy.l1dcaches1.prefetcher.demandMshrMisses            0                       # demands not covered by prefetchs (Count)
board.cache_hierarchy.l1dcaches1.prefetcher.pfIssued            0                       # number of hwpf issued (Count)
board.cache_hierarchy.l1dcaches1.prefetcher.pfUseful            0                       # number of useful prefetch (Count)
board.cache_hierarchy.l1dcaches1.prefetcher.pfUsefulButMiss            0                       # number of hit on prefetch but cache block is not in an usable state (Count)
board.cache_hierarchy.l1dcaches1.prefetcher.accuracy          nan                       # accuracy of the prefetcher (Count)
board.cache_hierarchy.l1dcaches1.prefetcher.coverage          nan                       # coverage brought by this prefetcher (Count)
board.cache_hierarchy.l1dcaches1.prefetcher.pfHitInCache            0                       # number of prefetches hitting in cache (Count)
board.cache_hierarchy.l1dcaches1.prefetcher.pfHitInMSHR            0                       # number of prefetches hitting in a MSHR (Count)
board.cache_hierarchy.l1dcaches1.prefetcher.pfHitInWB            0                       # number of prefetches hit in the Write Buffer (Count)
board.cache_hierarchy.l1dcaches1.prefetcher.pfLate            0                       # number of late prefetches (hitting in cache, MSHR or WB) (Count)
board.cache_hierarchy.l1dcaches1.prefetcher.pfIdentified            0                       # number of prefetch candidates identified (Count)
board.cache_hierarchy.l1dcaches1.prefetcher.pfBufferHit            0                       # number of redundant prefetches already in prefetch queue (Count)
board.cache_hierarchy.l1dcaches1.prefetcher.pfInCache            0                       # number of redundant prefetches already in cache/mshr dropped (Count)
board.cache_hierarchy.l1dcaches1.prefetcher.pfRemovedDemand            0                       # number of prefetches dropped due to a demand for the same address (Count)
board.cache_hierarchy.l1dcaches1.prefetcher.pfRemovedFull            0                       # number of prefetches dropped due to prefetch queue size (Count)
board.cache_hierarchy.l1dcaches1.prefetcher.pfSpanPage            0                       # number of prefetches that crossed the page (Count)
board.cache_hierarchy.l1dcaches1.prefetcher.pfUsefulSpanPage            0                       # number of prefetches that is useful and crossed the page (Count)
board.cache_hierarchy.l1dcaches1.prefetcher.power_state.pwrStateResidencyTicks::UNDEFINED 592934646180                       # Cumulative time (in ticks) in various power states (Tick)
board.cache_hierarchy.l1dcaches1.tags.tagsInUse            0                       # Average ticks per tags in use ((Tick/Count))
board.cache_hierarchy.l1dcaches1.tags.totalRefs            0                       # Total number of references to valid blocks. (Count)
board.cache_hierarchy.l1dcaches1.tags.sampledRefs            0                       # Sample count of references to valid blocks. (Count)
board.cache_hierarchy.l1dcaches1.tags.avgRefs          nan                       # Average number of references to valid blocks. ((Count/Count))
board.cache_hierarchy.l1dcaches1.tags.warmupTick            0                       # The tick when the warmup percentage was hit. (Tick)
board.cache_hierarchy.l1dcaches1.tags.tagAccesses            0                       # Number of tag accesses (Count)
board.cache_hierarchy.l1dcaches1.tags.dataAccesses            0                       # Number of data accesses (Count)
board.cache_hierarchy.l1dcaches1.tags.power_state.pwrStateResidencyTicks::UNDEFINED 592934646180                       # Cumulative time (in ticks) in various power states (Tick)
board.cache_hierarchy.l1icaches0.demandHits::processor.cores0.core.inst     53952883                       # number of demand (read+write) hits (Count)
board.cache_hierarchy.l1icaches0.demandHits::total     53952883                       # number of demand (read+write) hits (Count)
board.cache_hierarchy.l1icaches0.overallHits::processor.cores0.core.inst     53952883                       # number of overall hits (Count)
board.cache_hierarchy.l1icaches0.overallHits::total     53952883                       # number of overall hits (Count)
board.cache_hierarchy.l1icaches0.demandMisses::processor.cores0.core.inst         4525                       # number of demand (read+write) misses (Count)
board.cache_hierarchy.l1icaches0.demandMisses::total         4525                       # number of demand (read+write) misses (Count)
board.cache_hierarchy.l1icaches0.overallMisses::processor.cores0.core.inst         4525                       # number of overall misses (Count)
board.cache_hierarchy.l1icaches0.overallMisses::total         4525                       # number of overall misses (Count)
board.cache_hierarchy.l1icaches0.demandMissLatency::processor.cores0.core.inst    283981440                       # number of demand (read+write) miss ticks (Tick)
board.cache_hierarchy.l1icaches0.demandMissLatency::total    283981440                       # number of demand (read+write) miss ticks (Tick)
board.cache_hierarchy.l1icaches0.overallMissLatency::processor.cores0.core.inst    283981440                       # number of overall miss ticks (Tick)
board.cache_hierarchy.l1icaches0.overallMissLatency::total    283981440                       # number of overall miss ticks (Tick)
board.cache_hierarchy.l1icaches0.demandAccesses::processor.cores0.core.inst     53957408                       # number of demand (read+write) accesses (Count)
board.cache_hierarchy.l1icaches0.demandAccesses::total     53957408                       # number of demand (read+write) accesses (Count)
board.cache_hierarchy.l1icaches0.overallAccesses::processor.cores0.core.inst     53957408                       # number of overall (read+write) accesses (Count)
board.cache_hierarchy.l1icaches0.overallAccesses::total     53957408                       # number of overall (read+write) accesses (Count)
board.cache_hierarchy.l1icaches0.demandMissRate::processor.cores0.core.inst     0.000084                       # miss rate for demand accesses (Ratio)
board.cache_hierarchy.l1icaches0.demandMissRate::total     0.000084                       # miss rate for demand accesses (Ratio)
board.cache_hierarchy.l1icaches0.overallMissRate::processor.cores0.core.inst     0.000084                       # miss rate for overall accesses (Ratio)
board.cache_hierarchy.l1icaches0.overallMissRate::total     0.000084                       # miss rate for overall accesses (Ratio)
board.cache_hierarchy.l1icaches0.demandAvgMissLatency::processor.cores0.core.inst 62758.329282                       # average overall miss latency in ticks ((Tick/Count))
board.cache_hierarchy.l1icaches0.demandAvgMissLatency::total 62758.329282                       # average overall miss latency in ticks ((Tick/Count))
board.cache_hierarchy.l1icaches0.overallAvgMissLatency::processor.cores0.core.inst 62758.329282                       # average overall miss latency ((Tick/Count))
board.cache_hierarchy.l1icaches0.overallAvgMissLatency::total 62758.329282                       # average overall miss latency ((Tick/Count))
board.cache_hierarchy.l1icaches0.blockedCycles::no_mshrs            0                       # number of cycles access was blocked (Cycle)
board.cache_hierarchy.l1icaches0.blockedCycles::no_targets            0                       # number of cycles access was blocked (Cycle)
board.cache_hierarchy.l1icaches0.blockedCauses::no_mshrs            0                       # number of times access was blocked (Count)
board.cache_hierarchy.l1icaches0.blockedCauses::no_targets            0                       # number of times access was blocked (Count)
board.cache_hierarchy.l1icaches0.avgBlocked::no_mshrs          nan                       # average number of cycles each access was blocked ((Cycle/Count))
board.cache_hierarchy.l1icaches0.avgBlocked::no_targets          nan                       # average number of cycles each access was blocked ((Cycle/Count))
board.cache_hierarchy.l1icaches0.demandMshrHits::processor.cores0.core.inst          717                       # number of demand (read+write) MSHR hits (Count)
board.cache_hierarchy.l1icaches0.demandMshrHits::total          717                       # number of demand (read+write) MSHR hits (Count)
board.cache_hierarchy.l1icaches0.overallMshrHits::processor.cores0.core.inst          717                       # number of overall MSHR hits (Count)
board.cache_hierarchy.l1icaches0.overallMshrHits::total          717                       # number of overall MSHR hits (Count)
board.cache_hierarchy.l1icaches0.demandMshrMisses::processor.cores0.core.inst         3808                       # number of demand (read+write) MSHR misses (Count)
board.cache_hierarchy.l1icaches0.demandMshrMisses::total         3808                       # number of demand (read+write) MSHR misses (Count)
board.cache_hierarchy.l1icaches0.overallMshrMisses::processor.cores0.core.inst         3808                       # number of overall MSHR misses (Count)
board.cache_hierarchy.l1icaches0.overallMshrMisses::total         3808                       # number of overall MSHR misses (Count)
board.cache_hierarchy.l1icaches0.demandMshrMissLatency::processor.cores0.core.inst    242446860                       # number of demand (read+write) MSHR miss ticks (Tick)
board.cache_hierarchy.l1icaches0.demandMshrMissLatency::total    242446860                       # number of demand (read+write) MSHR miss ticks (Tick)
board.cache_hierarchy.l1icaches0.overallMshrMissLatency::processor.cores0.core.inst    242446860                       # number of overall MSHR miss ticks (Tick)
board.cache_hierarchy.l1icaches0.overallMshrMissLatency::total    242446860                       # number of overall MSHR miss ticks (Tick)
board.cache_hierarchy.l1icaches0.demandMshrMissRate::processor.cores0.core.inst     0.000071                       # mshr miss ratio for demand accesses (Ratio)
board.cache_hierarchy.l1icaches0.demandMshrMissRate::total     0.000071                       # mshr miss ratio for demand accesses (Ratio)
board.cache_hierarchy.l1icaches0.overallMshrMissRate::processor.cores0.core.inst     0.000071                       # mshr miss ratio for overall accesses (Ratio)
board.cache_hierarchy.l1icaches0.overallMshrMissRate::total     0.000071                       # mshr miss ratio for overall accesses (Ratio)
board.cache_hierarchy.l1icaches0.demandAvgMshrMissLatency::processor.cores0.core.inst 63667.767857                       # average overall mshr miss latency ((Tick/Count))
board.cache_hierarchy.l1icaches0.demandAvgMshrMissLatency::total 63667.767857                       # average overall mshr miss latency ((Tick/Count))
board.cache_hierarchy.l1icaches0.overallAvgMshrMissLatency::processor.cores0.core.inst 63667.767857                       # average overall mshr miss latency ((Tick/Count))
board.cache_hierarchy.l1icaches0.overallAvgMshrMissLatency::total 63667.767857                       # average overall mshr miss latency ((Tick/Count))
board.cache_hierarchy.l1icaches0.replacements         3296                       # number of replacements (Count)
board.cache_hierarchy.l1icaches0.ReadReq.hits::processor.cores0.core.inst     53952883                       # number of ReadReq hits (Count)
board.cache_hierarchy.l1icaches0.ReadReq.hits::total     53952883                       # number of ReadReq hits (Count)
board.cache_hierarchy.l1icaches0.ReadReq.misses::processor.cores0.core.inst         4525                       # number of ReadReq misses (Count)
board.cache_hierarchy.l1icaches0.ReadReq.misses::total         4525                       # number of ReadReq misses (Count)
board.cache_hierarchy.l1icaches0.ReadReq.missLatency::processor.cores0.core.inst    283981440                       # number of ReadReq miss ticks (Tick)
board.cache_hierarchy.l1icaches0.ReadReq.missLatency::total    283981440                       # number of ReadReq miss ticks (Tick)
board.cache_hierarchy.l1icaches0.ReadReq.accesses::processor.cores0.core.inst     53957408                       # number of ReadReq accesses(hits+misses) (Count)
board.cache_hierarchy.l1icaches0.ReadReq.accesses::total     53957408                       # number of ReadReq accesses(hits+misses) (Count)
board.cache_hierarchy.l1icaches0.ReadReq.missRate::processor.cores0.core.inst     0.000084                       # miss rate for ReadReq accesses (Ratio)
board.cache_hierarchy.l1icaches0.ReadReq.missRate::total     0.000084                       # miss rate for ReadReq accesses (Ratio)
board.cache_hierarchy.l1icaches0.ReadReq.avgMissLatency::processor.cores0.core.inst 62758.329282                       # average ReadReq miss latency ((Tick/Count))
board.cache_hierarchy.l1icaches0.ReadReq.avgMissLatency::total 62758.329282                       # average ReadReq miss latency ((Tick/Count))
board.cache_hierarchy.l1icaches0.ReadReq.mshrHits::processor.cores0.core.inst          717                       # number of ReadReq MSHR hits (Count)
board.cache_hierarchy.l1icaches0.ReadReq.mshrHits::total          717                       # number of ReadReq MSHR hits (Count)
board.cache_hierarchy.l1icaches0.ReadReq.mshrMisses::processor.cores0.core.inst         3808                       # number of ReadReq MSHR misses (Count)
board.cache_hierarchy.l1icaches0.ReadReq.mshrMisses::total         3808                       # number of ReadReq MSHR misses (Count)
board.cache_hierarchy.l1icaches0.ReadReq.mshrMissLatency::processor.cores0.core.inst    242446860                       # number of ReadReq MSHR miss ticks (Tick)
board.cache_hierarchy.l1icaches0.ReadReq.mshrMissLatency::total    242446860                       # number of ReadReq MSHR miss ticks (Tick)
board.cache_hierarchy.l1icaches0.ReadReq.mshrMissRate::processor.cores0.core.inst     0.000071                       # mshr miss rate for ReadReq accesses (Ratio)
board.cache_hierarchy.l1icaches0.ReadReq.mshrMissRate::total     0.000071                       # mshr miss rate for ReadReq accesses (Ratio)
board.cache_hierarchy.l1icaches0.ReadReq.avgMshrMissLatency::processor.cores0.core.inst 63667.767857                       # average ReadReq mshr miss latency ((Tick/Count))
board.cache_hierarchy.l1icaches0.ReadReq.avgMshrMissLatency::total 63667.767857                       # average ReadReq mshr miss latency ((Tick/Count))
board.cache_hierarchy.l1icaches0.clk_domain.clock         1000                       # Clock period in ticks (Tick)
board.cache_hierarchy.l1icaches0.clk_domain.voltage_domain.voltage            1                       # Voltage in Volts (Volt)
board.cache_hierarchy.l1icaches0.power_state.pwrStateResidencyTicks::UNDEFINED 592934646180                       # Cumulative time (in ticks) in various power states (Tick)
board.cache_hierarchy.l1icaches0.prefetcher.demandMshrMisses         3808                       # demands not covered by prefetchs (Count)
board.cache_hierarchy.l1icaches0.prefetcher.pfIssued            0                       # number of hwpf issued (Count)
board.cache_hierarchy.l1icaches0.prefetcher.pfUseful            0                       # number of useful prefetch (Count)
board.cache_hierarchy.l1icaches0.prefetcher.pfUsefulButMiss            0                       # number of hit on prefetch but cache block is not in an usable state (Count)
board.cache_hierarchy.l1icaches0.prefetcher.accuracy          nan                       # accuracy of the prefetcher (Count)
board.cache_hierarchy.l1icaches0.prefetcher.coverage            0                       # coverage brought by this prefetcher (Count)
board.cache_hierarchy.l1icaches0.prefetcher.pfHitInCache            0                       # number of prefetches hitting in cache (Count)
board.cache_hierarchy.l1icaches0.prefetcher.pfHitInMSHR            0                       # number of prefetches hitting in a MSHR (Count)
board.cache_hierarchy.l1icaches0.prefetcher.pfHitInWB            0                       # number of prefetches hit in the Write Buffer (Count)
board.cache_hierarchy.l1icaches0.prefetcher.pfLate            0                       # number of late prefetches (hitting in cache, MSHR or WB) (Count)
board.cache_hierarchy.l1icaches0.prefetcher.pfIdentified            0                       # number of prefetch candidates identified (Count)
board.cache_hierarchy.l1icaches0.prefetcher.pfBufferHit            0                       # number of redundant prefetches already in prefetch queue (Count)
board.cache_hierarchy.l1icaches0.prefetcher.pfInCache            0                       # number of redundant prefetches already in cache/mshr dropped (Count)
board.cache_hierarchy.l1icaches0.prefetcher.pfRemovedDemand            0                       # number of prefetches dropped due to a demand for the same address (Count)
board.cache_hierarchy.l1icaches0.prefetcher.pfRemovedFull            0                       # number of prefetches dropped due to prefetch queue size (Count)
board.cache_hierarchy.l1icaches0.prefetcher.pfSpanPage            0                       # number of prefetches that crossed the page (Count)
board.cache_hierarchy.l1icaches0.prefetcher.pfUsefulSpanPage            0                       # number of prefetches that is useful and crossed the page (Count)
board.cache_hierarchy.l1icaches0.prefetcher.power_state.pwrStateResidencyTicks::UNDEFINED 592934646180                       # Cumulative time (in ticks) in various power states (Tick)
board.cache_hierarchy.l1icaches0.tags.tagsInUse   511.438946                       # Average ticks per tags in use ((Tick/Count))
board.cache_hierarchy.l1icaches0.tags.totalRefs     53956691                       # Total number of references to valid blocks. (Count)
board.cache_hierarchy.l1icaches0.tags.sampledRefs         3808                       # Sample count of references to valid blocks. (Count)
board.cache_hierarchy.l1icaches0.tags.avgRefs 14169.299107                       # Average number of references to valid blocks. ((Count/Count))
board.cache_hierarchy.l1icaches0.tags.warmupTick        75020                       # The tick when the warmup percentage was hit. (Tick)
board.cache_hierarchy.l1icaches0.tags.occupancies::processor.cores0.core.inst   511.438946                       # Average occupied blocks per tick, per requestor ((Count/Tick))
board.cache_hierarchy.l1icaches0.tags.avgOccs::processor.cores0.core.inst     0.998904                       # Average percentage of cache occupancy ((Ratio/Tick))
board.cache_hierarchy.l1icaches0.tags.avgOccs::total     0.998904                       # Average percentage of cache occupancy ((Ratio/Tick))
board.cache_hierarchy.l1icaches0.tags.occupanciesTaskId::1024          512                       # Occupied blocks per task id (Count)
board.cache_hierarchy.l1icaches0.tags.ageTaskId_1024::0           39                       # Occupied blocks per task id, per block age (Count)
board.cache_hierarchy.l1icaches0.tags.ageTaskId_1024::1           65                       # Occupied blocks per task id, per block age (Count)
board.cache_hierarchy.l1icaches0.tags.ageTaskId_1024::2          260                       # Occupied blocks per task id, per block age (Count)
board.cache_hierarchy.l1icaches0.tags.ageTaskId_1024::4          148                       # Occupied blocks per task id, per block age (Count)
board.cache_hierarchy.l1icaches0.tags.ratioOccsTaskId::1024            1                       # Ratio of occupied blocks and all blocks, per task id (Ratio)
board.cache_hierarchy.l1icaches0.tags.tagAccesses    431663072                       # Number of tag accesses (Count)
board.cache_hierarchy.l1icaches0.tags.dataAccesses    431663072                       # Number of data accesses (Count)
board.cache_hierarchy.l1icaches0.tags.power_state.pwrStateResidencyTicks::UNDEFINED 592934646180                       # Cumulative time (in ticks) in various power states (Tick)
board.cache_hierarchy.l1icaches1.blockedCycles::no_mshrs            0                       # number of cycles access was blocked (Cycle)
board.cache_hierarchy.l1icaches1.blockedCycles::no_targets            0                       # number of cycles access was blocked (Cycle)
board.cache_hierarchy.l1icaches1.blockedCauses::no_mshrs            0                       # number of times access was blocked (Count)
board.cache_hierarchy.l1icaches1.blockedCauses::no_targets            0                       # number of times access was blocked (Count)
board.cache_hierarchy.l1icaches1.avgBlocked::no_mshrs          nan                       # average number of cycles each access was blocked ((Cycle/Count))
board.cache_hierarchy.l1icaches1.avgBlocked::no_targets          nan                       # average number of cycles each access was blocked ((Cycle/Count))
board.cache_hierarchy.l1icaches1.replacements            0                       # number of replacements (Count)
board.cache_hierarchy.l1icaches1.power_state.pwrStateResidencyTicks::UNDEFINED 592934646180                       # Cumulative time (in ticks) in various power states (Tick)
board.cache_hierarchy.l1icaches1.prefetcher.demandMshrMisses            0                       # demands not covered by prefetchs (Count)
board.cache_hierarchy.l1icaches1.prefetcher.pfIssued            0                       # number of hwpf issued (Count)
board.cache_hierarchy.l1icaches1.prefetcher.pfUseful            0                       # number of useful prefetch (Count)
board.cache_hierarchy.l1icaches1.prefetcher.pfUsefulButMiss            0                       # number of hit on prefetch but cache block is not in an usable state (Count)
board.cache_hierarchy.l1icaches1.prefetcher.accuracy          nan                       # accuracy of the prefetcher (Count)
board.cache_hierarchy.l1icaches1.prefetcher.coverage          nan                       # coverage brought by this prefetcher (Count)
board.cache_hierarchy.l1icaches1.prefetcher.pfHitInCache            0                       # number of prefetches hitting in cache (Count)
board.cache_hierarchy.l1icaches1.prefetcher.pfHitInMSHR            0                       # number of prefetches hitting in a MSHR (Count)
board.cache_hierarchy.l1icaches1.prefetcher.pfHitInWB            0                       # number of prefetches hit in the Write Buffer (Count)
board.cache_hierarchy.l1icaches1.prefetcher.pfLate            0                       # number of late prefetches (hitting in cache, MSHR or WB) (Count)
board.cache_hierarchy.l1icaches1.prefetcher.pfIdentified            0                       # number of prefetch candidates identified (Count)
board.cache_hierarchy.l1icaches1.prefetcher.pfBufferHit            0                       # number of redundant prefetches already in prefetch queue (Count)
board.cache_hierarchy.l1icaches1.prefetcher.pfInCache            0                       # number of redundant prefetches already in cache/mshr dropped (Count)
board.cache_hierarchy.l1icaches1.prefetcher.pfRemovedDemand            0                       # number of prefetches dropped due to a demand for the same address (Count)
board.cache_hierarchy.l1icaches1.prefetcher.pfRemovedFull            0                       # number of prefetches dropped due to prefetch queue size (Count)
board.cache_hierarchy.l1icaches1.prefetcher.pfSpanPage            0                       # number of prefetches that crossed the page (Count)
board.cache_hierarchy.l1icaches1.prefetcher.pfUsefulSpanPage            0                       # number of prefetches that is useful and crossed the page (Count)
board.cache_hierarchy.l1icaches1.prefetcher.power_state.pwrStateResidencyTicks::UNDEFINED 592934646180                       # Cumulative time (in ticks) in various power states (Tick)
board.cache_hierarchy.l1icaches1.tags.tagsInUse            0                       # Average ticks per tags in use ((Tick/Count))
board.cache_hierarchy.l1icaches1.tags.totalRefs            0                       # Total number of references to valid blocks. (Count)
board.cache_hierarchy.l1icaches1.tags.sampledRefs            0                       # Sample count of references to valid blocks. (Count)
board.cache_hierarchy.l1icaches1.tags.avgRefs          nan                       # Average number of references to valid blocks. ((Count/Count))
board.cache_hierarchy.l1icaches1.tags.warmupTick            0                       # The tick when the warmup percentage was hit. (Tick)
board.cache_hierarchy.l1icaches1.tags.tagAccesses            0                       # Number of tag accesses (Count)
board.cache_hierarchy.l1icaches1.tags.dataAccesses            0                       # Number of data accesses (Count)
board.cache_hierarchy.l1icaches1.tags.power_state.pwrStateResidencyTicks::UNDEFINED 592934646180                       # Cumulative time (in ticks) in various power states (Tick)
board.cache_hierarchy.l2buses0.transDist::ReadResp     14661560                       # Transaction distribution (Count)
board.cache_hierarchy.l2buses0.transDist::WritebackDirty     25600310                       # Transaction distribution (Count)
board.cache_hierarchy.l2buses0.transDist::CleanEvict      1790542                       # Transaction distribution (Count)
board.cache_hierarchy.l2buses0.transDist::HardPFReq       897607                       # Transaction distribution (Count)
board.cache_hierarchy.l2buses0.transDist::UpgradeReq       197478                       # Transaction distribution (Count)
board.cache_hierarchy.l2buses0.transDist::UpgradeResp       197478                       # Transaction distribution (Count)
board.cache_hierarchy.l2buses0.transDist::ReadExReq      9685214                       # Transaction distribution (Count)
board.cache_hierarchy.l2buses0.transDist::ReadExResp      9685214                       # Transaction distribution (Count)
board.cache_hierarchy.l2buses0.transDist::ReadSharedReq     14661560                       # Transaction distribution (Count)
board.cache_hierarchy.l2buses0.transDist::InvalidateReq       222193                       # Transaction distribution (Count)
board.cache_hierarchy.l2buses0.transDist::InvalidateResp       222193                       # Transaction distribution (Count)
board.cache_hierarchy.l2buses0.pktCount_board.cache_hierarchy.l1icaches0.mem_side_port::board.cache_hierarchy.l2caches0.cpu_side_port        10912                       # Packet count per connected requestor and responder (Count)
board.cache_hierarchy.l2buses0.pktCount_board.cache_hierarchy.l1dcaches0.mem_side_port::board.cache_hierarchy.l2caches0.cpu_side_port     73981562                       # Packet count per connected requestor and responder (Count)
board.cache_hierarchy.l2buses0.pktCount::total     73992474                       # Packet count per connected requestor and responder (Count)
board.cache_hierarchy.l2buses0.pktSize_board.cache_hierarchy.l1icaches0.mem_side_port::board.cache_hierarchy.l2caches0.cpu_side_port       243712                       # Cumulative packet size per connected requestor and responder (Byte)
board.cache_hierarchy.l2buses0.pktSize_board.cache_hierarchy.l1dcaches0.mem_side_port::board.cache_hierarchy.l2caches0.cpu_side_port   3022949696                       # Cumulative packet size per connected requestor and responder (Byte)
board.cache_hierarchy.l2buses0.pktSize::total   3023193408                       # Cumulative packet size per connected requestor and responder (Byte)
board.cache_hierarchy.l2buses0.snoops         3828875                       # Total snoops (Count)
board.cache_hierarchy.l2buses0.snoopTraffic    173419968                       # Total snoop traffic (Byte)
board.cache_hierarchy.l2buses0.snoopFanout::samples     28595827                       # Request fanout histogram (Count)
board.cache_hierarchy.l2buses0.snoopFanout::mean     0.000189                       # Request fanout histogram (Count)
board.cache_hierarchy.l2buses0.snoopFanout::stdev     0.013753                       # Request fanout histogram (Count)
board.cache_hierarchy.l2buses0.snoopFanout::underflows            0      0.00%      0.00% # Request fanout histogram (Count)
board.cache_hierarchy.l2buses0.snoopFanout::0     28590417     99.98%     99.98% # Request fanout histogram (Count)
board.cache_hierarchy.l2buses0.snoopFanout::1         5410      0.02%    100.00% # Request fanout histogram (Count)
board.cache_hierarchy.l2buses0.snoopFanout::2            0      0.00%    100.00% # Request fanout histogram (Count)
board.cache_hierarchy.l2buses0.snoopFanout::3            0      0.00%    100.00% # Request fanout histogram (Count)
board.cache_hierarchy.l2buses0.snoopFanout::4            0      0.00%    100.00% # Request fanout histogram (Count)
board.cache_hierarchy.l2buses0.snoopFanout::overflows            0      0.00%    100.00% # Request fanout histogram (Count)
board.cache_hierarchy.l2buses0.snoopFanout::min_value            0                       # Request fanout histogram (Count)
board.cache_hierarchy.l2buses0.snoopFanout::max_value            1                       # Request fanout histogram (Count)
board.cache_hierarchy.l2buses0.snoopFanout::total     28595827                       # Request fanout histogram (Count)
board.cache_hierarchy.l2buses0.power_state.pwrStateResidencyTicks::UNDEFINED 592934646180                       # Cumulative time (in ticks) in various power states (Tick)
board.cache_hierarchy.l2buses0.reqLayer0.occupancy   1906413707                       # Layer occupancy (ticks) (Tick)
board.cache_hierarchy.l2buses0.reqLayer0.utilization          0.0                       # Layer utilization (Ratio)
board.cache_hierarchy.l2buses0.respLayer0.occupancy       228499                       # Layer occupancy (ticks) (Tick)
board.cache_hierarchy.l2buses0.respLayer0.utilization          0.0                       # Layer utilization (Ratio)
board.cache_hierarchy.l2buses0.respLayer1.occupancy   1468971418                       # Layer occupancy (ticks) (Tick)
board.cache_hierarchy.l2buses0.respLayer1.utilization          0.0                       # Layer utilization (Ratio)
board.cache_hierarchy.l2buses0.snoop_filter.totRequests     49228802                       # Total number of requests made to the snoop filter. (Count)
board.cache_hierarchy.l2buses0.snoop_filter.hitSingleRequests     24767751                       # Number of requests hitting in the snoop filter with a single holder of the requested data. (Count)
board.cache_hierarchy.l2buses0.snoop_filter.hitMultiRequests         1280                       # Number of requests hitting in the snoop filter with multiple (>1) holders of the requested data. (Count)
board.cache_hierarchy.l2buses0.snoop_filter.totSnoops         4130                       # Total number of snoops made to the snoop filter. (Count)
board.cache_hierarchy.l2buses0.snoop_filter.hitSingleSnoops         4130                       # Number of snoops hitting in the snoop filter with a single holder of the requested data. (Count)
board.cache_hierarchy.l2buses0.snoop_filter.hitMultiSnoops            0                       # Number of snoops hitting in the snoop filter with multiple (>1) holders of the requested data. (Count)
board.cache_hierarchy.l2buses1.snoops               0                       # Total snoops (Count)
board.cache_hierarchy.l2buses1.snoopTraffic            0                       # Total snoop traffic (Byte)
board.cache_hierarchy.l2buses1.snoopFanout::samples            0                       # Request fanout histogram (Count)
board.cache_hierarchy.l2buses1.snoopFanout::mean          nan                       # Request fanout histogram (Count)
board.cache_hierarchy.l2buses1.snoopFanout::stdev          nan                       # Request fanout histogram (Count)
board.cache_hierarchy.l2buses1.snoopFanout::underflows            0                       # Request fanout histogram (Count)
board.cache_hierarchy.l2buses1.snoopFanout::0            0                       # Request fanout histogram (Count)
board.cache_hierarchy.l2buses1.snoopFanout::1            0                       # Request fanout histogram (Count)
board.cache_hierarchy.l2buses1.snoopFanout::2            0                       # Request fanout histogram (Count)
board.cache_hierarchy.l2buses1.snoopFanout::3            0                       # Request fanout histogram (Count)
board.cache_hierarchy.l2buses1.snoopFanout::4            0                       # Request fanout histogram (Count)
board.cache_hierarchy.l2buses1.snoopFanout::overflows            0                       # Request fanout histogram (Count)
board.cache_hierarchy.l2buses1.snoopFanout::min_value            0                       # Request fanout histogram (Count)
board.cache_hierarchy.l2buses1.snoopFanout::max_value            0                       # Request fanout histogram (Count)
board.cache_hierarchy.l2buses1.snoopFanout::total            0                       # Request fanout histogram (Count)
board.cache_hierarchy.l2buses1.power_state.pwrStateResidencyTicks::UNDEFINED 592934646180                       # Cumulative time (in ticks) in various power states (Tick)
board.cache_hierarchy.l2buses1.snoop_filter.totRequests            0                       # Total number of requests made to the snoop filter. (Count)
board.cache_hierarchy.l2buses1.snoop_filter.hitSingleRequests            0                       # Number of requests hitting in the snoop filter with a single holder of the requested data. (Count)
board.cache_hierarchy.l2buses1.snoop_filter.hitMultiRequests            0                       # Number of requests hitting in the snoop filter with multiple (>1) holders of the requested data. (Count)
board.cache_hierarchy.l2buses1.snoop_filter.totSnoops            0                       # Total number of snoops made to the snoop filter. (Count)
board.cache_hierarchy.l2buses1.snoop_filter.hitSingleSnoops            0                       # Number of snoops hitting in the snoop filter with a single holder of the requested data. (Count)
board.cache_hierarchy.l2buses1.snoop_filter.hitMultiSnoops            0                       # Number of snoops hitting in the snoop filter with multiple (>1) holders of the requested data. (Count)
board.cache_hierarchy.l2caches0.demandHits::cache_hierarchy.l1dcaches0.prefetcher      6286003                       # number of demand (read+write) hits (Count)
board.cache_hierarchy.l2caches0.demandHits::processor.cores0.core.inst          689                       # number of demand (read+write) hits (Count)
board.cache_hierarchy.l2caches0.demandHits::processor.cores0.core.data     15652724                       # number of demand (read+write) hits (Count)
board.cache_hierarchy.l2caches0.demandHits::total     21939416                       # number of demand (read+write) hits (Count)
board.cache_hierarchy.l2caches0.overallHits::cache_hierarchy.l1dcaches0.prefetcher      6286003                       # number of overall hits (Count)
board.cache_hierarchy.l2caches0.overallHits::processor.cores0.core.inst          689                       # number of overall hits (Count)
board.cache_hierarchy.l2caches0.overallHits::processor.cores0.core.data     15652724                       # number of overall hits (Count)
board.cache_hierarchy.l2caches0.overallHits::total     21939416                       # number of overall hits (Count)
board.cache_hierarchy.l2caches0.demandMisses::cache_hierarchy.l1dcaches0.prefetcher      1440116                       # number of demand (read+write) misses (Count)
board.cache_hierarchy.l2caches0.demandMisses::processor.cores0.core.inst         3119                       # number of demand (read+write) misses (Count)
board.cache_hierarchy.l2caches0.demandMisses::processor.cores0.core.data       964123                       # number of demand (read+write) misses (Count)
board.cache_hierarchy.l2caches0.demandMisses::total      2407358                       # number of demand (read+write) misses (Count)
board.cache_hierarchy.l2caches0.overallMisses::cache_hierarchy.l1dcaches0.prefetcher      1440116                       # number of overall misses (Count)
board.cache_hierarchy.l2caches0.overallMisses::processor.cores0.core.inst         3119                       # number of overall misses (Count)
board.cache_hierarchy.l2caches0.overallMisses::processor.cores0.core.data       964123                       # number of overall misses (Count)
board.cache_hierarchy.l2caches0.overallMisses::total      2407358                       # number of overall misses (Count)
board.cache_hierarchy.l2caches0.demandMissLatency::cache_hierarchy.l1dcaches0.prefetcher  81008722213                       # number of demand (read+write) miss ticks (Tick)
board.cache_hierarchy.l2caches0.demandMissLatency::processor.cores0.core.inst    197205800                       # number of demand (read+write) miss ticks (Tick)
board.cache_hierarchy.l2caches0.demandMissLatency::processor.cores0.core.data  28583534519                       # number of demand (read+write) miss ticks (Tick)
board.cache_hierarchy.l2caches0.demandMissLatency::total 109789462532                       # number of demand (read+write) miss ticks (Tick)
board.cache_hierarchy.l2caches0.overallMissLatency::cache_hierarchy.l1dcaches0.prefetcher  81008722213                       # number of overall miss ticks (Tick)
board.cache_hierarchy.l2caches0.overallMissLatency::processor.cores0.core.inst    197205800                       # number of overall miss ticks (Tick)
board.cache_hierarchy.l2caches0.overallMissLatency::processor.cores0.core.data  28583534519                       # number of overall miss ticks (Tick)
board.cache_hierarchy.l2caches0.overallMissLatency::total 109789462532                       # number of overall miss ticks (Tick)
board.cache_hierarchy.l2caches0.demandAccesses::cache_hierarchy.l1dcaches0.prefetcher      7726119                       # number of demand (read+write) accesses (Count)
board.cache_hierarchy.l2caches0.demandAccesses::processor.cores0.core.inst         3808                       # number of demand (read+write) accesses (Count)
board.cache_hierarchy.l2caches0.demandAccesses::processor.cores0.core.data     16616847                       # number of demand (read+write) accesses (Count)
[...]
board.processor.cores1.core.commitStats0.committedInstType::SimdFloatAdd            0                       # Class of committed instruction. (Count)
board.processor.cores1.core.commitStats0.committedInstType::SimdFloatAlu            0                       # Class of committed instruction. (Count)
board.processor.cores1.core.commitStats0.committedInstType::SimdFloatCmp            0                       # Class of committed instruction. (Count)
board.processor.cores1.core.commitStats0.committedInstType::SimdFloatCvt            0                       # Class of committed instruction. (Count)
board.processor.cores1.core.commitStats0.committedInstType::SimdFloatDiv            0                       # Class of committed instruction. (Count)
board.processor.cores1.core.commitStats0.committedInstType::SimdFloatMisc            0                       # Class of committed instruction. (Count)
board.processor.cores1.core.commitStats0.committedInstType::SimdFloatMult            0                       # Class of committed instruction. (Count)
board.processor.cores1.core.commitStats0.committedInstType::SimdFloatMultAcc            0                       # Class of committed instruction. (Count)
board.processor.cores1.core.commitStats0.committedInstType::SimdFloatMatMultAcc            0                       # Class of committed instruction. (Count)
board.processor.cores1.core.commitStats0.committedInstType::SimdFloatSqrt            0                       # Class of committed instruction. (Count)
board.processor.cores1.core.commitStats0.committedInstType::SimdReduceAdd            0                       # Class of committed instruction. (Count)
board.processor.cores1.core.commitStats0.committedInstType::SimdReduceAlu            0                       # Class of committed instruction. (Count)
board.processor.cores1.core.commitStats0.committedInstType::SimdReduceCmp            0                       # Class of committed instruction. (Count)
board.processor.cores1.core.commitStats0.committedInstType::SimdFloatReduceAdd            0                       # Class of committed instruction. (Count)
board.processor.cores1.core.commitStats0.committedInstType::SimdFloatReduceCmp            0                       # Class of committed instruction. (Count)
board.processor.cores1.core.commitStats0.committedInstType::SimdAes            0                       # Class of committed instruction. (Count)
board.processor.cores1.core.commitStats0.committedInstType::SimdAesMix            0                       # Class of committed instruction. (Count)
board.processor.cores1.core.commitStats0.committedInstType::SimdSha1Hash            0                       # Class of committed instruction. (Count)
board.processor.cores1.core.commitStats0.committedInstType::SimdSha1Hash2            0                       # Class of committed instruction. (Count)
board.processor.cores1.core.commitStats0.committedInstType::SimdSha256Hash            0                       # Class of committed instruction. (Count)
board.processor.cores1.core.commitStats0.committedInstType::SimdSha256Hash2            0                       # Class of committed instruction. (Count)
board.processor.cores1.core.commitStats0.committedInstType::SimdShaSigma2            0                       # Class of committed instruction. (Count)
board.processor.cores1.core.commitStats0.committedInstType::SimdShaSigma3            0                       # Class of committed instruction. (Count)
board.processor.cores1.core.commitStats0.committedInstType::SimdPredAlu            0                       # Class of committed instruction. (Count)
board.processor.cores1.core.commitStats0.committedInstType::Matrix            0                       # Class of committed instruction. (Count)
board.processor.cores1.core.commitStats0.committedInstType::MatrixMov            0                       # Class of committed instruction. (Count)
board.processor.cores1.core.commitStats0.committedInstType::MatrixOP            0                       # Class of committed instruction. (Count)
board.processor.cores1.core.commitStats0.committedInstType::MemRead            0                       # Class of committed instruction. (Count)
board.processor.cores1.core.commitStats0.committedInstType::MemWrite            0                       # Class of committed instruction. (Count)
board.processor.cores1.core.commitStats0.committedInstType::FloatMemRead            0                       # Class of committed instruction. (Count)
board.processor.cores1.core.commitStats0.committedInstType::FloatMemWrite            0                       # Class of committed instruction. (Count)
board.processor.cores1.core.commitStats0.committedInstType::IprAccess            0                       # Class of committed instruction. (Count)
board.processor.cores1.core.commitStats0.committedInstType::InstPrefetch            0                       # Class of committed instruction. (Count)
board.processor.cores1.core.commitStats0.committedInstType::VectorUnitStrideLoad            0                       # Class of committed instruction. (Count)
board.processor.cores1.core.commitStats0.committedInstType::VectorUnitStrideStore            0                       # Class of committed instruction. (Count)
board.processor.cores1.core.commitStats0.committedInstType::VectorUnitStrideMaskLoad            0                       # Class of committed instruction. (Count)
board.processor.cores1.core.commitStats0.committedInstType::VectorUnitStrideMaskStore            0                       # Class of committed instruction. (Count)
board.processor.cores1.core.commitStats0.committedInstType::VectorStridedLoad            0                       # Class of committed instruction. (Count)
board.processor.cores1.core.commitStats0.committedInstType::VectorStridedStore            0                       # Class of committed instruction. (Count)
board.processor.cores1.core.commitStats0.committedInstType::VectorIndexedLoad            0                       # Class of committed instruction. (Count)
board.processor.cores1.core.commitStats0.committedInstType::VectorIndexedStore            0                       # Class of committed instruction. (Count)
board.processor.cores1.core.commitStats0.committedInstType::VectorUnitStrideFaultOnlyFirstLoad            0                       # Class of committed instruction. (Count)
board.processor.cores1.core.commitStats0.committedInstType::VectorWholeRegisterLoad            0                       # Class of committed instruction. (Count)
board.processor.cores1.core.commitStats0.committedInstType::VectorWholeRegisterStore            0                       # Class of committed instruction. (Count)
board.processor.cores1.core.commitStats0.committedInstType::VectorIntegerArith            0                       # Class of committed instruction. (Count)
board.processor.cores1.core.commitStats0.committedInstType::VectorFloatArith            0                       # Class of committed instruction. (Count)
board.processor.cores1.core.commitStats0.committedInstType::VectorFloatConvert            0                       # Class of committed instruction. (Count)
board.processor.cores1.core.commitStats0.committedInstType::VectorIntegerReduce            0                       # Class of committed instruction. (Count)
board.processor.cores1.core.commitStats0.committedInstType::VectorFloatReduce            0                       # Class of committed instruction. (Count)
board.processor.cores1.core.commitStats0.committedInstType::VectorMisc            0                       # Class of committed instruction. (Count)
board.processor.cores1.core.commitStats0.committedInstType::VectorIntegerExtension            0                       # Class of committed instruction. (Count)
board.processor.cores1.core.commitStats0.committedInstType::VectorConfig            0                       # Class of committed instruction. (Count)
board.processor.cores1.core.commitStats0.committedInstType::total            0                       # Class of committed instruction. (Count)
board.processor.cores1.core.executeStats0.numInsts            0                       # Number of executed instructions (Count)
board.processor.cores1.core.executeStats0.numNop            0                       # Number of nop insts executed (Count)
board.processor.cores1.core.executeStats0.numBranches            0                       # Number of branches executed (Count)
board.processor.cores1.core.executeStats0.numLoadInsts            0                       # Number of load instructions executed (Count)
board.processor.cores1.core.executeStats0.numStoreInsts            0                       # Number of stores executed (Count)
board.processor.cores1.core.executeStats0.instRate          nan                       # Inst execution rate ((Count/Cycle))
board.processor.cores1.core.executeStats0.numFpRegWrites            0                       # Number of times the floating registers were written (Count)
board.processor.cores1.core.executeStats0.numMemRefs            0                       # Number of memory refs (Count)
board.processor.cores1.core.executeStats0.numVecAluAccesses            0                       # Number of vector alu accesses (Count)
board.processor.cores1.core.executeStats0.numDiscardedOps            0                       # Number of ops (including micro ops) which were discarded before commit (Count)
board.processor.cores1.core.fetch.nisnDist::samples            0                       # Number of instructions fetched each cycle (Total) (Count)
board.processor.cores1.core.fetch.nisnDist::mean          nan                       # Number of instructions fetched each cycle (Total) (Count)
board.processor.cores1.core.fetch.nisnDist::stdev          nan                       # Number of instructions fetched each cycle (Total) (Count)
board.processor.cores1.core.fetch.nisnDist::underflows            0                       # Number of instructions fetched each cycle (Total) (Count)
board.processor.cores1.core.fetch.nisnDist::0            0                       # Number of instructions fetched each cycle (Total) (Count)
board.processor.cores1.core.fetch.nisnDist::1            0                       # Number of instructions fetched each cycle (Total) (Count)
board.processor.cores1.core.fetch.nisnDist::2            0                       # Number of instructions fetched each cycle (Total) (Count)
board.processor.cores1.core.fetch.nisnDist::3            0                       # Number of instructions fetched each cycle (Total) (Count)
board.processor.cores1.core.fetch.nisnDist::4            0                       # Number of instructions fetched each cycle (Total) (Count)
board.processor.cores1.core.fetch.nisnDist::overflows            0                       # Number of instructions fetched each cycle (Total) (Count)
board.processor.cores1.core.fetch.nisnDist::min_value            0                       # Number of instructions fetched each cycle (Total) (Count)
board.processor.cores1.core.fetch.nisnDist::max_value            0                       # Number of instructions fetched each cycle (Total) (Count)
board.processor.cores1.core.fetch.nisnDist::total            0                       # Number of instructions fetched each cycle (Total) (Count)
board.processor.cores1.core.fetch.idleRate          nan                       # Ratio of cycles fetch was idle (Ratio)
board.processor.cores1.core.fetchStats0.numInsts            0                       # Number of instructions fetched (thread level) (Count)
board.processor.cores1.core.fetchStats0.numOps            0                       # Number of ops (including micro ops) fetched (thread level) (Count)
board.processor.cores1.core.fetchStats0.fetchRate          nan                       # Number of inst fetches per cycle ((Count/Cycle))
board.processor.cores1.core.fetchStats0.branchRate          nan                       # Number of branch fetches per cycle (Ratio)
board.processor.cores1.core.fetchStats0.numFetchSuspends            0                       # Number of times Execute suspended instruction fetching (Count)
board.processor.cores1.core.iew.idleCycles            0                       # Number of cycles IEW is idle (Cycle)
board.processor.cores1.core.iew.squashCycles            0                       # Number of cycles IEW is squashing (Cycle)
board.processor.cores1.core.iew.blockCycles            0                       # Number of cycles IEW is blocking (Cycle)
board.processor.cores1.core.iew.unblockCycles            0                       # Number of cycles IEW is unblocking (Cycle)
board.processor.cores1.core.iew.dispatchedInsts            0                       # Number of instructions dispatched to IQ (Count)
board.processor.cores1.core.iew.dispSquashedInsts            0                       # Number of squashed instructions skipped by dispatch (Count)
board.processor.cores1.core.iew.dispLoadInsts            0                       # Number of dispatched load instructions (Count)
board.processor.cores1.core.iew.dispStoreInsts            0                       # Number of dispatched store instructions (Count)
board.processor.cores1.core.iew.dispNonSpecInsts            0                       # Number of dispatched non-speculative instructions (Count)
board.processor.cores1.core.iew.iqFullEvents            0                       # Number of times the IQ has become full, causing a stall (Count)
board.processor.cores1.core.iew.lsqFullEvents            0                       # Number of times the LSQ has become full, causing a stall (Count)
board.processor.cores1.core.iew.memOrderViolationEvents            0                       # Number of memory order violations (Count)
board.processor.cores1.core.iew.predictedTakenIncorrect            0                       # Number of branches that were predicted taken incorrectly (Count)
board.processor.cores1.core.iew.predictedNotTakenIncorrect            0                       # Number of branches that were predicted not taken incorrectly (Count)
board.processor.cores1.core.iew.branchMispredicts            0                       # Number of branch mispredicts detected at execute (Count)
board.processor.cores1.core.iew.instsToCommit            0                       # Cumulative count of insts sent to commit (Count)
board.processor.cores1.core.iew.writebackCount            0                       # Cumulative count of insts written-back (Count)
board.processor.cores1.core.iew.producerInst            0                       # Number of instructions producing a value (Count)
board.processor.cores1.core.iew.consumerInst            0                       # Number of instructions consuming a value (Count)
board.processor.cores1.core.iew.wbRate            nan                       # Insts written-back per cycle ((Count/Cycle))
board.processor.cores1.core.iew.wbFanout          nan                       # Average fanout of values written-back ((Count/Count))
board.processor.cores1.core.lsq0.forwLoads            0                       # Number of loads that had data forwarded from stores (Count)
board.processor.cores1.core.lsq0.squashedLoads            0                       # Number of loads squashed (Count)
board.processor.cores1.core.lsq0.ignoredResponses            0                       # Number of memory responses ignored because the instruction is squashed (Count)
board.processor.cores1.core.lsq0.memOrderViolation            0                       # Number of memory ordering violations (Count)
board.processor.cores1.core.lsq0.squashedStores            0                       # Number of stores squashed (Count)
board.processor.cores1.core.lsq0.rescheduledLoads            0                       # Number of loads that were rescheduled (Count)
board.processor.cores1.core.lsq0.blockedByCache            0                       # Number of times an access to memory failed due to the cache being blocked (Count)
board.processor.cores1.core.mmu.dtb.readHits            0                       # read hits (Count)
board.processor.cores1.core.mmu.dtb.readMisses            0                       # read misses (Count)
board.processor.cores1.core.mmu.dtb.readAccesses            0                       # read accesses (Count)
board.processor.cores1.core.mmu.dtb.writeHits            0                       # write hits (Count)
board.processor.cores1.core.mmu.dtb.writeMisses            0                       # write misses (Count)
board.processor.cores1.core.mmu.dtb.writeAccesses            0                       # write accesses (Count)
board.processor.cores1.core.mmu.dtb.hits            0                       # Total TLB (read and write) hits (Count)
board.processor.cores1.core.mmu.dtb.misses            0                       # Total TLB (read and write) misses (Count)
board.processor.cores1.core.mmu.dtb.accesses            0                       # Total TLB (read and write) accesses (Count)
board.processor.cores1.core.mmu.dtb.walker.power_state.pwrStateResidencyTicks::UNDEFINED 592934646180                       # Cumulative time (in ticks) in various power states (Tick)
board.processor.cores1.core.mmu.itb.readHits            0                       # read hits (Count)
board.processor.cores1.core.mmu.itb.readMisses            0                       # read misses (Count)
board.processor.cores1.core.mmu.itb.readAccesses            0                       # read accesses (Count)
board.processor.cores1.core.mmu.itb.writeHits            0                       # write hits (Count)
board.processor.cores1.core.mmu.itb.writeMisses            0                       # write misses (Count)
board.processor.cores1.core.mmu.itb.writeAccesses            0                       # write accesses (Count)
board.processor.cores1.core.mmu.itb.hits            0                       # Total TLB (read and write) hits (Count)
board.processor.cores1.core.mmu.itb.misses            0                       # Total TLB (read and write) misses (Count)
board.processor.cores1.core.mmu.itb.accesses            0                       # Total TLB (read and write) accesses (Count)
board.processor.cores1.core.mmu.itb.walker.power_state.pwrStateResidencyTicks::UNDEFINED 592934646180                       # Cumulative time (in ticks) in various power states (Tick)
board.processor.cores1.core.power_state.pwrStateResidencyTicks::ON 592934646180                       # Cumulative time (in ticks) in various power states (Tick)
board.processor.cores1.core.rename.serializeStallCycles            0                       # count of cycles rename stalled for serializing inst (Cycle)
board.processor.cores1.core.rename.serializing            0                       # count of serializing insts renamed (Count)
board.processor.cores1.core.rename.tempSerializing            0                       # count of temporary serializing insts renamed (Count)
board.processor.cores1.core.rename.skidInsts            0                       # count of insts added to the skid buffer (Count)
board.processor.cores1.core.rob.reads               0                       # The number of ROB reads (Count)
board.processor.cores1.core.rob.writes              0                       # The number of ROB writes (Count)
board.processor.cores1.core.thread_0.numInsts            0                       # Number of Instructions committed (Count)
board.processor.cores1.core.thread_0.numOps            0                       # Number of Ops committed (Count)
board.processor.cores1.core.thread_0.numMemRefs            0                       # Number of Memory References (Count)
board.workload.inst.arm                             0                       # number of arm instructions executed (Count)
board.workload.inst.quiesce                         0                       # number of quiesce instructions executed (Count)

---------- End Simulation Statistics   ----------
