
---------- Begin Simulation Statistics ----------
simSeconds                                   0.022377                       # Number of seconds simulated (Second)
simTicks                                  22376573250                       # Number of ticks simulated (Tick)
finalTick                                 22376573250                       # Number of ticks from beginning of simulation (restored from checkpoints and never reset) (Tick)
simFreq                                  1000000000000                       # The number of ticks per simulated second ((Tick/Second))
hostSeconds                                     55.37                       # Real time elapsed on the host (Second)
hostTickRate                                404100570                       # The number of ticks simulated per host second (ticks/s) ((Tick/Second))
hostMemory                                    8604144                       # Number of bytes of host memory used (Byte)
simInsts                                     13783581                       # Number of instructions simulated (Count)
simOps                                       13860262                       # Number of ops (including micro ops) simulated (Count)
hostInstRate                                   248919                       # Simulator instruction rate (inst/s) ((Count/Second))
hostOpRate                                     250303                       # Simulator op (including micro ops) rate (op/s) ((Count/Second))
board.cache_hierarchy.dptw_caches0.blockedCycles::no_mshrs            0                       # number of cycles access was blocked (Cycle)
board.cache_hierarchy.dptw_caches0.blockedCycles::no_targets            0                       # number of cycles access was blocked (Cycle)
board.cache_hierarchy.dptw_caches0.blockedCauses::no_mshrs            0                       # number of times access was blocked (Count)
board.cache_hierarchy.dptw_caches0.blockedCauses::no_targets            0                       # number of times access was blocked (Count)
board.cache_hierarchy.dptw_caches0.avgBlocked::no_mshrs          nan                       # average number of cycles each access was blocked ((Cycle/Count))
board.cache_hierarchy.dptw_caches0.avgBlocked::no_targets          nan                       # average number of cycles each access was blocked ((Cycle/Count))
board.cache_hierarchy.dptw_caches0.replacements            0                       # number of replacements (Count)
board.cache_hierarchy.dptw_caches0.power_state.pwrStateResidencyTicks::UNDEFINED  22376573250                       # Cumulative time (in ticks) in various power states (Tick)
board.cache_hierarchy.dptw_caches0.tags.tagsInUse            0                       # Average ticks per tags in use ((Tick/Count))
board.cache_hierarchy.dptw_caches0.tags.totalRefs            0                       # Total number of references to valid blocks. (Count)
board.cache_hierarchy.dptw_caches0.tags.sampledRefs            0                       # Sample count of references to valid blocks. (Count)
board.cache_hierarchy.dptw_caches0.tags.avgRefs          nan                       # Average number of references to valid blocks. ((Count/Count))
board.cache_hierarchy.dptw_caches0.tags.warmupTick            0                       # The tick when the warmup percentage was hit. (Tick)
board.cache_hierarchy.dptw_caches0.tags.tagAccesses            0                       # Number of tag accesses (Count)
board.cache_hierarchy.dptw_caches0.tags.dataAccesses            0                       # Number of data accesses (Count)
board.cache_hierarchy.dptw_caches0.tags.power_state.pwrStateResidencyTicks::UNDEFINED  22376573250                       # Cumulative time (in ticks) in various power states (Tick)
board.cache_hierarchy.dptw_caches1.blockedCycles::no_mshrs            0                       # number of cycles access was blocked (Cycle)
board.cache_hierarchy.dptw_caches1.blockedCycles::no_targets            0                       # number of cycles access was blocked (Cycle)
board.cache_hierarchy.dptw_caches1.blockedCauses::no_mshrs            0                       # number of times access was blocked (Count)
board.cache_hierarchy.dptw_caches1.blockedCauses::no_targets            0                       # number of times access was blocked (Count)
board.cache_hierarchy.dptw_caches1.avgBlocked::no_mshrs          nan                       # average number of cycles each access was blocked ((Cycle/Count))
board.cache_hierarchy.dptw_caches1.avgBlocked::no_targets          nan                       # average number of cycles each access was blocked ((Cycle/Count))
board.cache_hierarchy.dptw_caches1.replacements            0                       # number of replacements (Count)
board.cache_hierarchy.dptw_caches1.power_state.pwrStateResidencyTicks::UNDEFINED  22376573250                       # Cumulative time (in ticks) in various power states (Tick)
board.cache_hierarchy.dptw_caches1.tags.tagsInUse            0                       # Average ticks per tags in use ((Tick/Count))
board.cache_hierarchy.dptw_caches1.tags.totalRefs            0                       # Total number of references to valid blocks. (Count)
board.cache_hierarchy.dptw_caches1.tags.sampledRefs            0                       # Sample count of references to valid blocks. (Count)
board.cache_hierarchy.dptw_caches1.tags.avgRefs          nan                       # Average number of references to valid blocks. ((Count/Count))
board.cache_hierarchy.dptw_caches1.tags.warmupTick            0                       # The tick when the warmup percentage was hit. (Tick)
board.cache_hierarchy.dptw_caches1.tags.tagAccesses            0                       # Number of tag accesses (Count)
board.cache_hierarchy.dptw_caches1.tags.dataAccesses            0                       # Number of data accesses (Count)
board.cache_hierarchy.dptw_caches1.tags.power_state.pwrStateResidencyTicks::UNDEFINED  22376573250                       # Cumulative time (in ticks) in various power states (Tick)
board.cache_hierarchy.iptw_caches0.blockedCycles::no_mshrs            0                       # number of cycles access was blocked (Cycle)
board.cache_hierarchy.iptw_caches0.blockedCycles::no_targets            0                       # number of cycles access was blocked (Cycle)
board.cache_hierarchy.iptw_caches0.blockedCauses::no_mshrs            0                       # number of times access was blocked (Count)
board.cache_hierarchy.iptw_caches0.blockedCauses::no_targets            0                       # number of times access was blocked (Count)
board.cache_hierarchy.iptw_caches0.avgBlocked::no_mshrs          nan                       # average number of cycles each access was blocked ((Cycle/Count))
board.cache_hierarchy.iptw_caches0.avgBlocked::no_targets          nan                       # average number of cycles each access was blocked ((Cycle/Count))
board.cache_hierarchy.iptw_caches0.replacements            0                       # number of replacements (Count)
board.cache_hierarchy.iptw_caches0.power_state.pwrStateResidencyTicks::UNDEFINED  22376573250                       # Cumulative time (in ticks) in various power states (Tick)
board.cache_hierarchy.iptw_caches0.tags.tagsInUse            0                       # Average ticks per tags in use ((Tick/Count))
board.cache_hierarchy.iptw_caches0.tags.totalRefs            0                       # Total number of references to valid blocks. (Count)
board.cache_hierarchy.iptw_caches0.tags.sampledRefs            0                       # Sample count of references to valid blocks. (Count)
board.cache_hierarchy.iptw_caches0.tags.avgRefs          nan                       # Average number of references to valid blocks. ((Count/Count))
board.cache_hierarchy.iptw_caches0.tags.warmupTick            0                       # The tick when the warmup percentage was hit. (Tick)
board.cache_hierarchy.iptw_caches0.tags.tagAccesses            0                       # Number of tag accesses (Count)
board.cache_hierarchy.iptw_caches0.tags.dataAccesses            0                       # Number of data accesses (Count)
board.cache_hierarchy.iptw_caches0.tags.power_state.pwrStateResidencyTicks::UNDEFINED  22376573250                       # Cumulative time (in ticks) in various power states (Tick)
board.cache_hierarchy.iptw_caches1.blockedCycles::no_mshrs            0                       # number of cycles access was blocked (Cycle)
board.cache_hierarchy.iptw_caches1.blockedCycles::no_targets            0                       # number of cycles access was blocked (Cycle)
board.cache_hierarchy.iptw_caches1.blockedCauses::no_mshrs            0                       # number of times access was blocked (Count)
board.cache_hierarchy.iptw_caches1.blockedCauses::no_targets            0                       # number of times access was blocked (Count)
board.cache_hierarchy.iptw_caches1.avgBlocked::no_mshrs          nan                       # average number of cycles each access was blocked ((Cycle/Count))
board.cache_hierarchy.iptw_caches1.avgBlocked::no_targets          nan                       # average number of cycles each access was blocked ((Cycle/Count))
board.cache_hierarchy.iptw_caches1.replacements            0                       # number of replacements (Count)
board.cache_hierarchy.iptw_caches1.power_state.pwrStateResidencyTicks::UNDEFINED  22376573250                       # Cumulative time (in ticks) in various power states (Tick)
board.cache_hierarchy.iptw_caches1.tags.tagsInUse            0                       # Average ticks per tags in use ((Tick/Count))
board.cache_hierarchy.iptw_caches1.tags.totalRefs            0                       # Total number of references to valid blocks. (Count)
board.cache_hierarchy.iptw_caches1.tags.sampledRefs            0                       # Sample count of references to valid blocks. (Count)
board.cache_hierarchy.iptw_caches1.tags.avgRefs          nan                       # Average number of references to valid blocks. ((Count/Count))
board.cache_hierarchy.iptw_caches1.tags.warmupTick            0                       # The tick when the warmup percentage was hit. (Tick)
board.cache_hierarchy.iptw_caches1.tags.tagAccesses            0                       # Number of tag accesses (Count)
board.cache_hierarchy.iptw_caches1.tags.dataAccesses            0                       # Number of data accesses (Count)
board.cache_hierarchy.iptw_caches1.tags.power_state.pwrStateResidencyTicks::UNDEFINED  22376573250                       # Cumulative time (in ticks) in various power states (Tick)
board.cache_hierarchy.l1dcaches0.demandHits::processor.cores0.core.data      2391016                       # number of demand (read+write) hits (Count)
board.cache_hierarchy.l1dcaches0.demandHits::total      2391016                       # number of demand (read+write) hits (Count)
board.cache_hierarchy.l1dcaches0.overallHits::processor.cores0.core.data      2391016                       # number of overall hits (Count)
board.cache_hierarchy.l1dcaches0.overallHits::total      2391016                       # number of overall hits (Count)
board.cache_hierarchy.l1dcaches0.demandMisses::processor.cores0.core.data        43654                       # number of demand (read+write) misses (Count)
board.cache_hierarchy.l1dcaches0.demandMisses::total        43654                       # number of demand (read+write) misses (Count)
board.cache_hierarchy.l1dcaches0.overallMisses::processor.cores0.core.data        43654                       # number of overall misses (Count)
board.cache_hierarchy.l1dcaches0.overallMisses::total        43654                       # number of overall misses (Count)
board.cache_hierarchy.l1dcaches0.demandMissLatency::processor.cores0.core.data   1394107746                       # number of demand (read+write) miss ticks (Tick)
board.cache_hierarchy.l1dcaches0.demandMissLatency::total   1394107746                       # number of demand (read+write) miss ticks (Tick)
board.cache_hierarchy.l1dcaches0.overallMissLatency::processor.cores0.core.data   1394107746                       # number of overall miss ticks (Tick)
board.cache_hierarchy.l1dcaches0.overallMissLatency::total   1394107746                       # number of overall miss ticks (Tick)
board.cache_hierarchy.l1dcaches0.demandAccesses::processor.cores0.core.data      2434670                       # number of demand (read+write) accesses (Count)
board.cache_hierarchy.l1dcaches0.demandAccesses::total      2434670                       # number of demand (read+write) accesses (Count)
board.cache_hierarchy.l1dcaches0.overallAccesses::processor.cores0.core.data      2434670                       # number of overall (read+write) accesses (Count)
board.cache_hierarchy.l1dcaches0.overallAccesses::total      2434670                       # number of overall (read+write) accesses (Count)
board.cache_hierarchy.l1dcaches0.demandMissRate::processor.cores0.core.data     0.017930                       # miss rate for demand accesses (Ratio)
board.cache_hierarchy.l1dcaches0.demandMissRate::total     0.017930                       # miss rate for demand accesses (Ratio)
board.cache_hierarchy.l1dcaches0.overallMissRate::processor.cores0.core.data     0.017930                       # miss rate for overall accesses (Ratio)
board.cache_hierarchy.l1dcaches0.overallMissRate::total     0.017930                       # miss rate for overall accesses (Ratio)
board.cache_hierarchy.l1dcaches0.demandAvgMissLatency::processor.cores0.core.data 31935.395290                       # average overall miss latency in ticks ((Tick/Count))
board.cache_hierarchy.l1dcaches0.demandAvgMissLatency::total 31935.395290                       # average overall miss latency in ticks ((Tick/Count))
board.cache_hierarchy.l1dcaches0.overallAvgMissLatency::processor.cores0.core.data 31935.395290                       # average overall miss latency ((Tick/Count))
board.cache_hierarchy.l1dcaches0.overallAvgMissLatency::total 31935.395290                       # average overall miss latency ((Tick/Count))
board.cache_hierarchy.l1dcaches0.blockedCycles::no_mshrs            0                       # number of cycles access was blocked (Cycle)
board.cache_hierarchy.l1dcaches0.blockedCycles::no_targets         6307                       # number of cycles access was blocked (Cycle)
board.cache_hierarchy.l1dcaches0.blockedCauses::no_mshrs            0                       # number of times access was blocked (Count)
board.cache_hierarchy.l1dcaches0.blockedCauses::no_targets          393                       # number of times access was blocked (Count)
board.cache_hierarchy.l1dcaches0.avgBlocked::no_mshrs          nan                       # average number of cycles each access was blocked ((Cycle/Count))
board.cache_hierarchy.l1dcaches0.avgBlocked::no_targets    16.048346                       # average number of cycles each access was blocked ((Cycle/Count))
board.cache_hierarchy.l1dcaches0.writebacks::writebacks        12339                       # number of writebacks (Count)
board.cache_hierarchy.l1dcaches0.writebacks::total        12339                       # number of writebacks (Count)
board.cache_hierarchy.l1dcaches0.demandMshrHits::processor.cores0.core.data        23656                       # number of demand (read+write) MSHR hits (Count)
board.cache_hierarchy.l1dcaches0.demandMshrHits::total        23656                       # number of demand (read+write) MSHR hits (Count)
board.cache_hierarchy.l1dcaches0.overallMshrHits::processor.cores0.core.data        23656                       # number of overall MSHR hits (Count)
board.cache_hierarchy.l1dcaches0.overallMshrHits::total        23656                       # number of overall MSHR hits (Count)
board.cache_hierarchy.l1dcaches0.demandMshrMisses::processor.cores0.core.data        19998                       # number of demand (read+write) MSHR misses (Count)
board.cache_hierarchy.l1dcaches0.demandMshrMisses::total        19998                       # number of demand (read+write) MSHR misses (Count)
board.cache_hierarchy.l1dcaches0.overallMshrMisses::cache_hierarchy.l1dcaches0.prefetcher         5115                       # number of overall MSHR misses (Count)
board.cache_hierarchy.l1dcaches0.overallMshrMisses::processor.cores0.core.data        19998                       # number of overall MSHR misses (Count)
board.cache_hierarchy.l1dcaches0.overallMshrMisses::total        25113                       # number of overall MSHR misses (Count)
board.cache_hierarchy.l1dcaches0.demandMshrMissLatency::processor.cores0.core.data    697030749                       # number of demand (read+write) MSHR miss ticks (Tick)
board.cache_hierarchy.l1dcaches0.demandMshrMissLatency::total    697030749                       # number of demand (read+write) MSHR miss ticks (Tick)
board.cache_hierarchy.l1dcaches0.overallMshrMissLatency::cache_hierarchy.l1dcaches0.prefetcher    169831413                       # number of overall MSHR miss ticks (Tick)
board.cache_hierarchy.l1dcaches0.overallMshrMissLatency::processor.cores0.core.data    697030749                       # number of overall MSHR miss ticks (Tick)
board.cache_hierarchy.l1dcaches0.overallMshrMissLatency::total    866862162                       # number of overall MSHR miss ticks (Tick)
board.cache_hierarchy.l1dcaches0.demandMshrMissRate::processor.cores0.core.data     0.008214                       # mshr miss ratio for demand accesses (Ratio)
board.cache_hierarchy.l1dcaches0.demandMshrMissRate::total     0.008214                       # mshr miss ratio for demand accesses (Ratio)
board.cache_hierarchy.l1dcaches0.overallMshrMissRate::cache_hierarchy.l1dcaches0.prefetcher          inf                       # mshr miss ratio for overall accesses (Ratio)
board.cache_hierarchy.l1dcaches0.overallMshrMissRate::processor.cores0.core.data     0.008214                       # mshr miss ratio for overall accesses (Ratio)
board.cache_hierarchy.l1dcaches0.overallMshrMissRate::total     0.010315                       # mshr miss ratio for overall accesses (Ratio)
board.cache_hierarchy.l1dcaches0.demandAvgMshrMissLatency::processor.cores0.core.data 34855.022952                       # average overall mshr miss latency ((Tick/Count))
board.cache_hierarchy.l1dcaches0.demandAvgMshrMissLatency::total 34855.022952                       # average overall mshr miss latency ((Tick/Count))
board.cache_hierarchy.l1dcaches0.overallAvgMshrMissLatency::cache_hierarchy.l1dcaches0.prefetcher 33202.622287                       # average overall mshr miss latency ((Tick/Count))
board.cache_hierarchy.l1dcaches0.overallAvgMshrMissLatency::processor.cores0.core.data 34855.022952                       # average overall mshr miss latency ((Tick/Count))
board.cache_hierarchy.l1dcaches0.overallAvgMshrMissLatency::total 34518.463027                       # average overall mshr miss latency ((Tick/Count))
board.cache_hierarchy.l1dcaches0.replacements        13019                       # number of replacements (Count)
board.cache_hierarchy.l1dcaches0.HardPFReq.mshrMisses::cache_hierarchy.l1dcaches0.prefetcher         5115                       # number of HardPFReq MSHR misses (Count)
board.cache_hierarchy.l1dcaches0.HardPFReq.mshrMisses::total         5115                       # number of HardPFReq MSHR misses (Count)
board.cache_hierarchy.l1dcaches0.HardPFReq.mshrMissLatency::cache_hierarchy.l1dcaches0.prefetcher    169831413                       # number of HardPFReq MSHR miss ticks (Tick)
board.cache_hierarchy.l1dcaches0.HardPFReq.mshrMissLatency::total    169831413                       # number of HardPFReq MSHR miss ticks (Tick)
board.cache_hierarchy.l1dcaches0.HardPFReq.mshrMissRate::cache_hierarchy.l1dcaches0.prefetcher          inf                       # mshr miss rate for HardPFReq accesses (Ratio)
board.cache_hierarchy.l1dcaches0.HardPFReq.mshrMissRate::total          inf                       # mshr miss rate for HardPFReq accesses (Ratio)
board.cache_hierarchy.l1dcaches0.HardPFReq.avgMshrMissLatency::cache_hierarchy.l1dcaches0.prefetcher 33202.622287                       # average HardPFReq mshr miss latency ((Tick/Count))
board.cache_hierarchy.l1dcaches0.HardPFReq.avgMshrMissLatency::total 33202.622287                       # average HardPFReq mshr miss latency ((Tick/Count))
board.cache_hierarchy.l1dcaches0.LoadLockedReq.hits::processor.cores0.core.data         3778                       # number of LoadLockedReq hits (Count)
board.cache_hierarchy.l1dcaches0.LoadLockedReq.hits::total         3778                       # number of LoadLockedReq hits (Count)
board.cache_hierarchy.l1dcaches0.LoadLockedReq.misses::processor.cores0.core.data          768                       # number of LoadLockedReq misses (Count)
board.cache_hierarchy.l1dcaches0.LoadLockedReq.misses::total          768                       # number of LoadLockedReq misses (Count)
board.cache_hierarchy.l1dcaches0.LoadLockedReq.missLatency::processor.cores0.core.data     25810000                       # number of LoadLockedReq miss ticks (Tick)
board.cache_hierarchy.l1dcaches0.LoadLockedReq.missLatency::total     25810000                       # number of LoadLockedReq miss ticks (Tick)
board.cache_hierarchy.l1dcaches0.LoadLockedReq.accesses::processor.cores0.core.data         4546                       # number of LoadLockedReq accesses(hits+misses) (Count)
board.cache_hierarchy.l1dcaches0.LoadLockedReq.accesses::total         4546                       # number of LoadLockedReq accesses(hits+misses) (Count)
board.cache_hierarchy.l1dcaches0.LoadLockedReq.missRate::processor.cores0.core.data     0.168940                       # miss rate for LoadLockedReq accesses (Ratio)
board.cache_hierarchy.l1dcaches0.LoadLockedReq.missRate::total     0.168940                       # miss rate for LoadLockedReq accesses (Ratio)
board.cache_hierarchy.l1dcaches0.LoadLockedReq.avgMissLatency::processor.cores0.core.data 33606.770833                       # average LoadLockedReq miss latency ((Tick/Count))
board.cache_hierarchy.l1dcaches0.LoadLockedReq.avgMissLatency::total 33606.770833                       # average LoadLockedReq miss latency ((Tick/Count))
board.cache_hierarchy.l1dcaches0.LoadLockedReq.mshrHits::processor.cores0.core.data          506                       # number of LoadLockedReq MSHR hits (Count)
board.cache_hierarchy.l1dcaches0.LoadLockedReq.mshrHits::total          506                       # number of LoadLockedReq MSHR hits (Count)
board.cache_hierarchy.l1dcaches0.LoadLockedReq.mshrMisses::processor.cores0.core.data          262                       # number of LoadLockedReq MSHR misses (Count)
board.cache_hierarchy.l1dcaches0.LoadLockedReq.mshrMisses::total          262                       # number of LoadLockedReq MSHR misses (Count)
board.cache_hierarchy.l1dcaches0.LoadLockedReq.mshrMissLatency::processor.cores0.core.data      8839500                       # number of LoadLockedReq MSHR miss ticks (Tick)
board.cache_hierarchy.l1dcaches0.LoadLockedReq.mshrMissLatency::total      8839500                       # number of LoadLockedReq MSHR miss ticks (Tick)
board.cache_hierarchy.l1dcaches0.LoadLockedReq.mshrMissRate::processor.cores0.core.data     0.057633                       # mshr miss rate for LoadLockedReq accesses (Ratio)
board.cache_hierarchy.l1dcaches0.LoadLockedReq.mshrMissRate::total     0.057633                       # mshr miss rate for LoadLockedReq accesses (Ratio)
board.cache_hierarchy.l1dcaches0.LoadLockedReq.avgMshrMissLatency::processor.cores0.core.data 33738.549618                       # average LoadLockedReq mshr miss latency ((Tick/Count))
board.cache_hierarchy.l1dcaches0.LoadLockedReq.avgMshrMissLatency::total 33738.549618                       # average LoadLockedReq mshr miss latency ((Tick/Count))
board.cache_hierarchy.l1dcaches0.ReadReq.hits::processor.cores0.core.data      1826675                       # number of ReadReq hits (Count)
board.cache_hierarchy.l1dcaches0.ReadReq.hits::total      1826675                       # number of ReadReq hits (Count)
board.cache_hierarchy.l1dcaches0.ReadReq.misses::processor.cores0.core.data        18564                       # number of ReadReq misses (Count)
board.cache_hierarchy.l1dcaches0.ReadReq.misses::total        18564                       # number of ReadReq misses (Count)
board.cache_hierarchy.l1dcaches0.ReadReq.missLatency::processor.cores0.core.data    383591750                       # number of ReadReq miss ticks (Tick)
board.cache_hierarchy.l1dcaches0.ReadReq.missLatency::total    383591750                       # number of ReadReq miss ticks (Tick)
board.cache_hierarchy.l1dcaches0.ReadReq.accesses::processor.cores0.core.data      1845239                       # number of ReadReq accesses(hits+misses) (Count)
board.cache_hierarchy.l1dcaches0.ReadReq.accesses::total      1845239                       # number of ReadReq accesses(hits+misses) (Count)
board.cache_hierarchy.l1dcaches0.ReadReq.missRate::processor.cores0.core.data     0.010060                       # miss rate for ReadReq accesses (Ratio)
board.cache_hierarchy.l1dcaches0.ReadReq.missRate::total     0.010060                       # miss rate for ReadReq accesses (Ratio)
board.cache_hierarchy.l1dcaches0.ReadReq.avgMissLatency::processor.cores0.core.data 20663.205667                       # average ReadReq miss latency ((Tick/Count))
board.cache_hierarchy.l1dcaches0.ReadReq.avgMissLatency::total 20663.205667                       # average ReadReq miss latency ((Tick/Count))
board.cache_hierarchy.l1dcaches0.ReadReq.mshrHits::processor.cores0.core.data        12084                       # number of ReadReq MSHR hits (Count)
board.cache_hierarchy.l1dcaches0.ReadReq.mshrHits::total        12084                       # number of ReadReq MSHR hits (Count)
board.cache_hierarchy.l1dcaches0.ReadReq.mshrMisses::processor.cores0.core.data         6480                       # number of ReadReq MSHR misses (Count)
board.cache_hierarchy.l1dcaches0.ReadReq.mshrMisses::total         6480                       # number of ReadReq MSHR misses (Count)
board.cache_hierarchy.l1dcaches0.ReadReq.mshrMissLatency::processor.cores0.core.data    160956750                       # number of ReadReq MSHR miss ticks (Tick)
board.cache_hierarchy.l1dcaches0.ReadReq.mshrMissLatency::total    160956750                       # number of ReadReq MSHR miss ticks (Tick)
board.cache_hierarchy.l1dcaches0.ReadReq.mshrMissRate::processor.cores0.core.data     0.003512                       # mshr miss rate for ReadReq accesses (Ratio)
board.cache_hierarchy.l1dcaches0.ReadReq.mshrMissRate::total     0.003512                       # mshr miss rate for ReadReq accesses (Ratio)
board.cache_hierarchy.l1dcaches0.ReadReq.avgMshrMissLatency::processor.cores0.core.data 24839.004630                       # average ReadReq mshr miss latency ((Tick/Count))
board.cache_hierarchy.l1dcaches0.ReadReq.avgMshrMissLatency::total 24839.004630                       # average ReadReq mshr miss latency ((Tick/Count))
board.cache_hierarchy.l1dcaches0.StoreCondFailReq.missLatency::processor.cores0.core.data      4768250                       # number of StoreCondFailReq miss ticks (Tick)
board.cache_hierarchy.l1dcaches0.StoreCondFailReq.missLatency::total      4768250                       # number of StoreCondFailReq miss ticks (Tick)
board.cache_hierarchy.l1dcaches0.StoreCondFailReq.avgMissLatency::processor.cores0.core.data          inf                       # average StoreCondFailReq miss latency ((Tick/Count))
board.cache_hierarchy.l1dcaches0.StoreCondFailReq.avgMissLatency::total          inf                       # average StoreCondFailReq miss latency ((Tick/Count))
board.cache_hierarchy.l1dcaches0.StoreCondFailReq.mshrMissLatency::processor.cores0.core.data      4598500                       # number of StoreCondFailReq MSHR miss ticks (Tick)
board.cache_hierarchy.l1dcaches0.StoreCondFailReq.mshrMissLatency::total      4598500                       # number of StoreCondFailReq MSHR miss ticks (Tick)
board.cache_hierarchy.l1dcaches0.StoreCondFailReq.avgMshrMissLatency::processor.cores0.core.data          inf                       # average StoreCondFailReq mshr miss latency ((Tick/Count))
board.cache_hierarchy.l1dcaches0.StoreCondFailReq.avgMshrMissLatency::total          inf                       # average StoreCondFailReq mshr miss latency ((Tick/Count))
board.cache_hierarchy.l1dcaches0.StoreCondReq.hits::processor.cores0.core.data         2531                       # number of StoreCondReq hits (Count)
board.cache_hierarchy.l1dcaches0.StoreCondReq.hits::total         2531                       # number of StoreCondReq hits (Count)
board.cache_hierarchy.l1dcaches0.StoreCondReq.misses::processor.cores0.core.data         1280                       # number of StoreCondReq misses (Count)
board.cache_hierarchy.l1dcaches0.StoreCondReq.misses::total         1280                       # number of StoreCondReq misses (Count)
board.cache_hierarchy.l1dcaches0.StoreCondReq.missLatency::processor.cores0.core.data     40972750                       # number of StoreCondReq miss ticks (Tick)
board.cache_hierarchy.l1dcaches0.StoreCondReq.missLatency::total     40972750                       # number of StoreCondReq miss ticks (Tick)
board.cache_hierarchy.l1dcaches0.StoreCondReq.accesses::processor.cores0.core.data         3811                       # number of StoreCondReq accesses(hits+misses) (Count)
board.cache_hierarchy.l1dcaches0.StoreCondReq.accesses::total         3811                       # number of StoreCondReq accesses(hits+misses) (Count)
board.cache_hierarchy.l1dcaches0.StoreCondReq.missRate::processor.cores0.core.data     0.335870                       # miss rate for StoreCondReq accesses (Ratio)
board.cache_hierarchy.l1dcaches0.StoreCondReq.missRate::total     0.335870                       # miss rate for StoreCondReq accesses (Ratio)
board.cache_hierarchy.l1dcaches0.StoreCondReq.avgMissLatency::processor.cores0.core.data 32009.960938                       # average StoreCondReq miss latency ((Tick/Count))
board.cache_hierarchy.l1dcaches0.StoreCondReq.avgMissLatency::total 32009.960938                       # average StoreCondReq miss latency ((Tick/Count))
board.cache_hierarchy.l1dcaches0.StoreCondReq.mshrMisses::processor.cores0.core.data         1280                       # number of StoreCondReq MSHR misses (Count)
board.cache_hierarchy.l1dcaches0.StoreCondReq.mshrMisses::total         1280                       # number of StoreCondReq MSHR misses (Count)
board.cache_hierarchy.l1dcaches0.StoreCondReq.mshrMissLatency::processor.cores0.core.data     38913000                       # number of StoreCondReq MSHR miss ticks (Tick)
board.cache_hierarchy.l1dcaches0.StoreCondReq.mshrMissLatency::total     38913000                       # number of StoreCondReq MSHR miss ticks (Tick)
board.cache_hierarchy.l1dcaches0.StoreCondReq.mshrMissRate::processor.cores0.core.data     0.335870                       # mshr miss rate for StoreCondReq accesses (Ratio)
board.cache_hierarchy.l1dcaches0.StoreCondReq.mshrMissRate::total     0.335870                       # mshr miss rate for StoreCondReq accesses (Ratio)
board.cache_hierarchy.l1dcaches0.StoreCondReq.avgMshrMissLatency::processor.cores0.core.data 30400.781250                       # average StoreCondReq mshr miss latency ((Tick/Count))
board.cache_hierarchy.l1dcaches0.StoreCondReq.avgMshrMissLatency::total 30400.781250                       # average StoreCondReq mshr miss latency ((Tick/Count))
board.cache_hierarchy.l1dcaches0.SwapReq.hits::processor.cores0.core.data        17271                       # number of SwapReq hits (Count)
board.cache_hierarchy.l1dcaches0.SwapReq.hits::total        17271                       # number of SwapReq hits (Count)
board.cache_hierarchy.l1dcaches0.SwapReq.misses::processor.cores0.core.data        16922                       # number of SwapReq misses (Count)
board.cache_hierarchy.l1dcaches0.SwapReq.misses::total        16922                       # number of SwapReq misses (Count)
board.cache_hierarchy.l1dcaches0.SwapReq.missLatency::processor.cores0.core.data    587608500                       # number of SwapReq miss ticks (Tick)
board.cache_hierarchy.l1dcaches0.SwapReq.missLatency::total    587608500                       # number of SwapReq miss ticks (Tick)
board.cache_hierarchy.l1dcaches0.SwapReq.accesses::processor.cores0.core.data        34193                       # number of SwapReq accesses(hits+misses) (Count)
board.cache_hierarchy.l1dcaches0.SwapReq.accesses::total        34193                       # number of SwapReq accesses(hits+misses) (Count)
board.cache_hierarchy.l1dcaches0.SwapReq.missRate::processor.cores0.core.data     0.494897                       # miss rate for SwapReq accesses (Ratio)
board.cache_hierarchy.l1dcaches0.SwapReq.missRate::total     0.494897                       # miss rate for SwapReq accesses (Ratio)
board.cache_hierarchy.l1dcaches0.SwapReq.avgMissLatency::processor.cores0.core.data 34724.530197                       # average SwapReq miss latency ((Tick/Count))
board.cache_hierarchy.l1dcaches0.SwapReq.avgMissLatency::total 34724.530197                       # average SwapReq miss latency ((Tick/Count))
board.cache_hierarchy.l1dcaches0.SwapReq.mshrMisses::processor.cores0.core.data        16922                       # number of SwapReq MSHR misses (Count)
board.cache_hierarchy.l1dcaches0.SwapReq.mshrMisses::total        16922                       # number of SwapReq MSHR misses (Count)
board.cache_hierarchy.l1dcaches0.SwapReq.mshrMissLatency::processor.cores0.core.data    558016750                       # number of SwapReq MSHR miss ticks (Tick)
board.cache_hierarchy.l1dcaches0.SwapReq.mshrMissLatency::total    558016750                       # number of SwapReq MSHR miss ticks (Tick)
board.cache_hierarchy.l1dcaches0.SwapReq.mshrMissRate::processor.cores0.core.data     0.494897                       # mshr miss rate for SwapReq accesses (Ratio)
board.cache_hierarchy.l1dcaches0.SwapReq.mshrMissRate::total     0.494897                       # mshr miss rate for SwapReq accesses (Ratio)
board.cache_hierarchy.l1dcaches0.SwapReq.avgMshrMissLatency::processor.cores0.core.data 32975.815506                       # average SwapReq mshr miss latency ((Tick/Count))
board.cache_hierarchy.l1dcaches0.SwapReq.avgMshrMissLatency::total 32975.815506                       # average SwapReq mshr miss latency ((Tick/Count))
board.cache_hierarchy.l1dcaches0.WriteReq.hits::processor.cores0.core.data       564341                       # number of WriteReq hits (Count)
board.cache_hierarchy.l1dcaches0.WriteReq.hits::total       564341                       # number of WriteReq hits (Count)
board.cache_hierarchy.l1dcaches0.WriteReq.misses::processor.cores0.core.data        25090                       # number of WriteReq misses (Count)
board.cache_hierarchy.l1dcaches0.WriteReq.misses::total        25090                       # number of WriteReq misses (Count)
board.cache_hierarchy.l1dcaches0.WriteReq.missLatency::processor.cores0.core.data   1010515996                       # number of WriteReq miss ticks (Tick)
board.cache_hierarchy.l1dcaches0.WriteReq.missLatency::total   1010515996                       # number of WriteReq miss ticks (Tick)
board.cache_hierarchy.l1dcaches0.WriteReq.accesses::processor.cores0.core.data       589431                       # number of WriteReq accesses(hits+misses) (Count)
board.cache_hierarchy.l1dcaches0.WriteReq.accesses::total       589431                       # number of WriteReq accesses(hits+misses) (Count)
board.cache_hierarchy.l1dcaches0.WriteReq.missRate::processor.cores0.core.data     0.042566                       # miss rate for WriteReq accesses (Ratio)
board.cache_hierarchy.l1dcaches0.WriteReq.missRate::total     0.042566                       # miss rate for WriteReq accesses (Ratio)
board.cache_hierarchy.l1dcaches0.WriteReq.avgMissLatency::processor.cores0.core.data 40275.647509                       # average WriteReq miss latency ((Tick/Count))
board.cache_hierarchy.l1dcaches0.WriteReq.avgMissLatency::total 40275.647509                       # average WriteReq miss latency ((Tick/Count))
board.cache_hierarchy.l1dcaches0.WriteReq.mshrHits::processor.cores0.core.data        11572                       # number of WriteReq MSHR hits (Count)
board.cache_hierarchy.l1dcaches0.WriteReq.mshrHits::total        11572                       # number of WriteReq MSHR hits (Count)
board.cache_hierarchy.l1dcaches0.WriteReq.mshrMisses::processor.cores0.core.data        13518                       # number of WriteReq MSHR misses (Count)
board.cache_hierarchy.l1dcaches0.WriteReq.mshrMisses::total        13518                       # number of WriteReq MSHR misses (Count)
board.cache_hierarchy.l1dcaches0.WriteReq.mshrMissLatency::processor.cores0.core.data    536073999                       # number of WriteReq MSHR miss ticks (Tick)
board.cache_hierarchy.l1dcaches0.WriteReq.mshrMissLatency::total    536073999                       # number of WriteReq MSHR miss ticks (Tick)
board.cache_hierarchy.l1dcaches0.WriteReq.mshrMissRate::processor.cores0.core.data     0.022934                       # mshr miss rate for WriteReq accesses (Ratio)
board.cache_hierarchy.l1dcaches0.WriteReq.mshrMissRate::total     0.022934                       # mshr miss rate for WriteReq accesses (Ratio)
board.cache_hierarchy.l1dcaches0.WriteReq.avgMshrMissLatency::processor.cores0.core.data 39656.310031                       # average WriteReq mshr miss latency ((Tick/Count))
board.cache_hierarchy.l1dcaches0.WriteReq.avgMshrMissLatency::total 39656.310031                       # average WriteReq mshr miss latency ((Tick/Count))
board.cache_hierarchy.l1dcaches0.power_state.pwrStateResidencyTicks::UNDEFINED  22376573250                       # Cumulative time (in ticks) in various power states (Tick)
board.cache_hierarchy.l1dcaches0.prefetcher.demandMshrMisses        19998                       # demands not covered by prefetchs (Count)
board.cache_hierarchy.l1dcaches0.prefetcher.pfIssued        19891                       # number of hwpf issued (Count)
board.cache_hierarchy.l1dcaches0.prefetcher.pfUnused          220                       # number of HardPF blocks evicted w/o reference (Count)
board.cache_hierarchy.l1dcaches0.prefetcher.pfUseful         5332                       # number of useful prefetch (Count)
board.cache_hierarchy.l1dcaches0.prefetcher.pfUsefulButMiss          689                       # number of hit on prefetch but cache block is not in an usable state (Count)
board.cache_hierarchy.l1dcaches0.prefetcher.accuracy     0.268061                       # accuracy of the prefetcher (Count)
board.cache_hierarchy.l1dcaches0.prefetcher.coverage     0.210501                       # coverage brought by this prefetcher (Count)
board.cache_hierarchy.l1dcaches0.prefetcher.pfHitInCache        11325                       # number of prefetches hitting in cache (Count)
board.cache_hierarchy.l1dcaches0.prefetcher.pfHitInMSHR         3451                       # number of prefetches hitting in a MSHR (Count)
board.cache_hierarchy.l1dcaches0.prefetcher.pfHitInWB            0                       # number of prefetches hit in the Write Buffer (Count)
board.cache_hierarchy.l1dcaches0.prefetcher.pfLate        14776                       # number of late prefetches (hitting in cache, MSHR or WB) (Count)
board.cache_hierarchy.l1dcaches0.prefetcher.pfIdentified        39675                       # number of prefetch candidates identified (Count)
board.cache_hierarchy.l1dcaches0.prefetcher.pfBufferHit        15289                       # number of redundant prefetches already in prefetch queue (Count)
board.cache_hierarchy.l1dcaches0.prefetcher.pfInCache            0                       # number of redundant prefetches already in cache/mshr dropped (Count)
board.cache_hierarchy.l1dcaches0.prefetcher.pfRemovedDemand          125                       # number of prefetches dropped due to a demand for the same address (Count)
board.cache_hierarchy.l1dcaches0.prefetcher.pfRemovedFull            0                       # number of prefetches dropped due to prefetch queue size (Count)
board.cache_hierarchy.l1dcaches0.prefetcher.pfSpanPage         1545                       # number of prefetches that crossed the page (Count)
board.cache_hierarchy.l1dcaches0.prefetcher.pfUsefulSpanPage           80                       # number of prefetches that is useful and crossed the page (Count)
board.cache_hierarchy.l1dcaches0.prefetcher.power_state.pwrStateResidencyTicks::UNDEFINED  22376573250                       # Cumulative time (in ticks) in various power states (Tick)
board.cache_hierarchy.l1dcaches0.tags.tagsInUse   502.483656                       # Average ticks per tags in use ((Tick/Count))
board.cache_hierarchy.l1dcaches0.tags.totalRefs      2466505                       # Total number of references to valid blocks. (Count)
board.cache_hierarchy.l1dcaches0.tags.sampledRefs        40054                       # Sample count of references to valid blocks. (Count)
board.cache_hierarchy.l1dcaches0.tags.avgRefs    61.579493                       # Average number of references to valid blocks. ((Count/Count))
board.cache_hierarchy.l1dcaches0.tags.warmupTick       224750                       # The tick when the warmup percentage was hit. (Tick)
board.cache_hierarchy.l1dcaches0.tags.occupancies::cache_hierarchy.l1dcaches0.prefetcher   212.542489                       # Average occupied blocks per tick, per requestor ((Count/Tick))
board.cache_hierarchy.l1dcaches0.tags.occupancies::processor.cores0.core.data   289.941167                       # Average occupied blocks per tick, per requestor ((Count/Tick))
board.cache_hierarchy.l1dcaches0.tags.avgOccs::cache_hierarchy.l1dcaches0.prefetcher     0.415122                       # Average percentage of cache occupancy ((Ratio/Tick))
board.cache_hierarchy.l1dcaches0.tags.avgOccs::processor.cores0.core.data     0.566291                       # Average percentage of cache occupancy ((Ratio/Tick))
board.cache_hierarchy.l1dcaches0.tags.avgOccs::total     0.981413                       # Average percentage of cache occupancy ((Ratio/Tick))
board.cache_hierarchy.l1dcaches0.tags.occupanciesTaskId::1022          106                       # Occupied blocks per task id (Count)
board.cache_hierarchy.l1dcaches0.tags.occupanciesTaskId::1024          400                       # Occupied blocks per task id (Count)
board.cache_hierarchy.l1dcaches0.tags.ageTaskId_1022::0            4                       # Occupied blocks per task id, per block age (Count)
board.cache_hierarchy.l1dcaches0.tags.ageTaskId_1022::1            1                       # Occupied blocks per task id, per block age (Count)
board.cache_hierarchy.l1dcaches0.tags.ageTaskId_1022::2           26                       # Occupied blocks per task id, per block age (Count)
board.cache_hierarchy.l1dcaches0.tags.ageTaskId_1022::3           75                       # Occupied blocks per task id, per block age (Count)
board.cache_hierarchy.l1dcaches0.tags.ageTaskId_1024::0           99                       # Occupied blocks per task id, per block age (Count)
board.cache_hierarchy.l1dcaches0.tags.ageTaskId_1024::1           49                       # Occupied blocks per task id, per block age (Count)
board.cache_hierarchy.l1dcaches0.tags.ageTaskId_1024::2           86                       # Occupied blocks per task id, per block age (Count)
board.cache_hierarchy.l1dcaches0.tags.ageTaskId_1024::3          166                       # Occupied blocks per task id, per block age (Count)
board.cache_hierarchy.l1dcaches0.tags.ratioOccsTaskId::1022     0.207031                       # Ratio of occupied blocks and all blocks, per task id (Ratio)
board.cache_hierarchy.l1dcaches0.tags.ratioOccsTaskId::1024     0.781250                       # Ratio of occupied blocks and all blocks, per task id (Ratio)
board.cache_hierarchy.l1dcaches0.tags.tagAccesses     19857814                       # Number of tag accesses (Count)
board.cache_hierarchy.l1dcaches0.tags.dataAccesses     19857814                       # Number of data accesses (Count)
board.cache_hierarchy.l1dcaches0.tags.power_state.pwrStateResidencyTicks::UNDEFINED  22376573250                       # Cumulative time (in ticks) in various power states (Tick)
board.cache_hierarchy.l1dcaches1.demandHits::processor.cores1.core.data      1253597                       # number of demand (read+write) hits (Count)
board.cache_hierarchy.l1dcaches1.demandHits::total      1253597                       # number of demand (read+write) hits (Count)
board.cache_hierarchy.l1dcaches1.overallHits::processor.cores1.core.data      1253597                       # number of overall hits (Count)
board.cache_hierarchy.l1dcaches1.overallHits::total      1253597                       # number of overall hits (Count)
board.cache_hierarchy.l1dcaches1.demandMisses::processor.cores1.core.data        44790                       # number of demand (read+write) misses (Count)
board.cache_hierarchy.l1dcaches1.demandMisses::total        44790                       # number of demand (read+write) misses (Count)
board.cache_hierarchy.l1dcaches1.overallMisses::processor.cores1.core.data        44790                       # number of overall misses (Count)
board.cache_hierarchy.l1dcaches1.overallMisses::total        44790                       # number of overall misses (Count)
board.cache_hierarchy.l1dcaches1.demandMissLatency::processor.cores1.core.data   1102410498                       # number of demand (read+write) miss ticks (Tick)
board.cache_hierarchy.l1dcaches1.demandMissLatency::total   1102410498                       # number of demand (read+write) miss ticks (Tick)
board.cache_hierarchy.l1dcaches1.overallMissLatency::processor.cores1.core.data   1102410498                       # number of overall miss ticks (Tick)
board.cache_hierarchy.l1dcaches1.overallMissLatency::total   1102410498                       # number of overall miss ticks (Tick)
board.cache_hierarchy.l1dcaches1.demandAccesses::processor.cores1.core.data      1298387                       # number of demand (read+write) accesses (Count)
board.cache_hierarchy.l1dcaches1.demandAccesses::total      1298387                       # number of demand (read+write) accesses (Count)
board.cache_hierarchy.l1dcaches1.overallAccesses::processor.cores1.core.data      1298387                       # number of overall (read+write) accesses (Count)
board.cache_hierarchy.l1dcaches1.overallAccesses::total      1298387                       # number of overall (read+write) accesses (Count)
board.cache_hierarchy.l1dcaches1.demandMissRate::processor.cores1.core.data     0.034497                       # miss rate for demand accesses (Ratio)
board.cache_hierarchy.l1dcaches1.demandMissRate::total     0.034497                       # miss rate for demand accesses (Ratio)
board.cache_hierarchy.l1dcaches1.overallMissRate::processor.cores1.core.data     0.034497                       # miss rate for overall accesses (Ratio)
board.cache_hierarchy.l1dcaches1.overallMissRate::total     0.034497                       # miss rate for overall accesses (Ratio)
board.cache_hierarchy.l1dcaches1.demandAvgMissLatency::processor.cores1.core.data 24612.871132                       # average overall miss latency in ticks ((Tick/Count))
board.cache_hierarchy.l1dcaches1.demandAvgMissLatency::total 24612.871132                       # average overall miss latency in ticks ((Tick/Count))
board.cache_hierarchy.l1dcaches1.overallAvgMissLatency::processor.cores1.core.data 24612.871132                       # average overall miss latency ((Tick/Count))
board.cache_hierarchy.l1dcaches1.overallAvgMissLatency::total 24612.871132                       # average overall miss latency ((Tick/Count))
board.cache_hierarchy.l1dcaches1.blockedCycles::no_mshrs            0                       # number of cycles access was blocked (Cycle)
board.cache_hierarchy.l1dcaches1.blockedCycles::no_targets         4672                       # number of cycles access was blocked (Cycle)
board.cache_hierarchy.l1dcaches1.blockedCauses::no_mshrs            0                       # number of times access was blocked (Count)
board.cache_hierarchy.l1dcaches1.blockedCauses::no_targets          355                       # number of times access was blocked (Count)
board.cache_hierarchy.l1dcaches1.avgBlocked::no_mshrs          nan                       # average number of cycles each access was blocked ((Cycle/Count))
board.cache_hierarchy.l1dcaches1.avgBlocked::no_targets    13.160563                       # average number of cycles each access was blocked ((Cycle/Count))
board.cache_hierarchy.l1dcaches1.writebacks::writebacks        12604                       # number of writebacks (Count)
board.cache_hierarchy.l1dcaches1.writebacks::total        12604                       # number of writebacks (Count)
board.cache_hierarchy.l1dcaches1.demandMshrHits::processor.cores1.core.data        20206                       # number of demand (read+write) MSHR hits (Count)
board.cache_hierarchy.l1dcaches1.demandMshrHits::total        20206                       # number of demand (read+write) MSHR hits (Count)
board.cache_hierarchy.l1dcaches1.overallMshrHits::processor.cores1.core.data        20206                       # number of overall MSHR hits (Count)
board.cache_hierarchy.l1dcaches1.overallMshrHits::total        20206                       # number of overall MSHR hits (Count)
board.cache_hierarchy.l1dcaches1.demandMshrMisses::processor.cores1.core.data        24584                       # number of demand (read+write) MSHR misses (Count)
board.cache_hierarchy.l1dcaches1.demandMshrMisses::total        24584                       # number of demand (read+write) MSHR misses (Count)
board.cache_hierarchy.l1dcaches1.overallMshrMisses::cache_hierarchy.l1dcaches1.prefetcher         4897                       # number of overall MSHR misses (Count)
board.cache_hierarchy.l1dcaches1.overallMshrMisses::processor.cores1.core.data        24584                       # number of overall MSHR misses (Count)
board.cache_hierarchy.l1dcaches1.overallMshrMisses::total        29481                       # number of overall MSHR misses (Count)
board.cache_hierarchy.l1dcaches1.demandMshrMissLatency::processor.cores1.core.data    670100000                       # number of demand (read+write) MSHR miss ticks (Tick)
board.cache_hierarchy.l1dcaches1.demandMshrMissLatency::total    670100000                       # number of demand (read+write) MSHR miss ticks (Tick)
board.cache_hierarchy.l1dcaches1.overallMshrMissLatency::cache_hierarchy.l1dcaches1.prefetcher     88572101                       # number of overall MSHR miss ticks (Tick)
board.cache_hierarchy.l1dcaches1.overallMshrMissLatency::processor.cores1.core.data    670100000                       # number of overall MSHR miss ticks (Tick)
board.cache_hierarchy.l1dcaches1.overallMshrMissLatency::total    758672101                       # number of overall MSHR miss ticks (Tick)
board.cache_hierarchy.l1dcaches1.demandMshrMissRate::processor.cores1.core.data     0.018934                       # mshr miss ratio for demand accesses (Ratio)
board.cache_hierarchy.l1dcaches1.demandMshrMissRate::total     0.018934                       # mshr miss ratio for demand accesses (Ratio)
board.cache_hierarchy.l1dcaches1.overallMshrMissRate::cache_hierarchy.l1dcaches1.prefetcher          inf                       # mshr miss ratio for overall accesses (Ratio)
board.cache_hierarchy.l1dcaches1.overallMshrMissRate::processor.cores1.core.data     0.018934                       # mshr miss ratio for overall accesses (Ratio)
board.cache_hierarchy.l1dcaches1.overallMshrMissRate::total     0.022706                       # mshr miss ratio for overall accesses (Ratio)
board.cache_hierarchy.l1dcaches1.demandAvgMshrMissLatency::processor.cores1.core.data 27257.565897                       # average overall mshr miss latency ((Tick/Count))
board.cache_hierarchy.l1dcaches1.demandAvgMshrMissLatency::total 27257.565897                       # average overall mshr miss latency ((Tick/Count))
board.cache_hierarchy.l1dcaches1.overallAvgMshrMissLatency::cache_hierarchy.l1dcaches1.prefetcher 18087.012661                       # average overall mshr miss latency ((Tick/Count))
board.cache_hierarchy.l1dcaches1.overallAvgMshrMissLatency::processor.cores1.core.data 27257.565897                       # average overall mshr miss latency ((Tick/Count))
board.cache_hierarchy.l1dcaches1.overallAvgMshrMissLatency::total 25734.272955                       # average overall mshr miss latency ((Tick/Count))
board.cache_hierarchy.l1dcaches1.replacements        16388                       # number of replacements (Count)
board.cache_hierarchy.l1dcaches1.HardPFReq.mshrMisses::cache_hierarchy.l1dcaches1.prefetcher         4897                       # number of HardPFReq MSHR misses (Count)
board.cache_hierarchy.l1dcaches1.HardPFReq.mshrMisses::total         4897                       # number of HardPFReq MSHR misses (Count)
board.cache_hierarchy.l1dcaches1.HardPFReq.mshrMissLatency::cache_hierarchy.l1dcaches1.prefetcher     88572101                       # number of HardPFReq MSHR miss ticks (Tick)
board.cache_hierarchy.l1dcaches1.HardPFReq.mshrMissLatency::total     88572101                       # number of HardPFReq MSHR miss ticks (Tick)
board.cache_hierarchy.l1dcaches1.HardPFReq.mshrMissRate::cache_hierarchy.l1dcaches1.prefetcher          inf                       # mshr miss rate for HardPFReq accesses (Ratio)
board.cache_hierarchy.l1dcaches1.HardPFReq.mshrMissRate::total          inf                       # mshr miss rate for HardPFReq accesses (Ratio)
board.cache_hierarchy.l1dcaches1.HardPFReq.avgMshrMissLatency::cache_hierarchy.l1dcaches1.prefetcher 18087.012661                       # average HardPFReq mshr miss latency ((Tick/Count))
board.cache_hierarchy.l1dcaches1.HardPFReq.avgMshrMissLatency::total 18087.012661                       # average HardPFReq mshr miss latency ((Tick/Count))
board.cache_hierarchy.l1dcaches1.LoadLockedReq.hits::processor.cores1.core.data         2562                       # number of LoadLockedReq hits (Count)
board.cache_hierarchy.l1dcaches1.LoadLockedReq.hits::total         2562                       # number of LoadLockedReq hits (Count)
board.cache_hierarchy.l1dcaches1.LoadLockedReq.misses::processor.cores1.core.data          809                       # number of LoadLockedReq misses (Count)
board.cache_hierarchy.l1dcaches1.LoadLockedReq.misses::total          809                       # number of LoadLockedReq misses (Count)
board.cache_hierarchy.l1dcaches1.LoadLockedReq.missLatency::processor.cores1.core.data     27552500                       # number of LoadLockedReq miss ticks (Tick)
board.cache_hierarchy.l1dcaches1.LoadLockedReq.missLatency::total     27552500                       # number of LoadLockedReq miss ticks (Tick)
board.cache_hierarchy.l1dcaches1.LoadLockedReq.accesses::processor.cores1.core.data         3371                       # number of LoadLockedReq accesses(hits+misses) (Count)
board.cache_hierarchy.l1dcaches1.LoadLockedReq.accesses::total         3371                       # number of LoadLockedReq accesses(hits+misses) (Count)
board.cache_hierarchy.l1dcaches1.LoadLockedReq.missRate::processor.cores1.core.data     0.239988                       # miss rate for LoadLockedReq accesses (Ratio)
board.cache_hierarchy.l1dcaches1.LoadLockedReq.missRate::total     0.239988                       # miss rate for LoadLockedReq accesses (Ratio)
board.cache_hierarchy.l1dcaches1.LoadLockedReq.avgMissLatency::processor.cores1.core.data 34057.478368                       # average LoadLockedReq miss latency ((Tick/Count))
board.cache_hierarchy.l1dcaches1.LoadLockedReq.avgMissLatency::total 34057.478368                       # average LoadLockedReq miss latency ((Tick/Count))
board.cache_hierarchy.l1dcaches1.LoadLockedReq.mshrHits::processor.cores1.core.data          590                       # number of LoadLockedReq MSHR hits (Count)
board.cache_hierarchy.l1dcaches1.LoadLockedReq.mshrHits::total          590                       # number of LoadLockedReq MSHR hits (Count)
board.cache_hierarchy.l1dcaches1.LoadLockedReq.mshrMisses::processor.cores1.core.data          219                       # number of LoadLockedReq MSHR misses (Count)
board.cache_hierarchy.l1dcaches1.LoadLockedReq.mshrMisses::total          219                       # number of LoadLockedReq MSHR misses (Count)
board.cache_hierarchy.l1dcaches1.LoadLockedReq.mshrMissLatency::processor.cores1.core.data      7114750                       # number of LoadLockedReq MSHR miss ticks (Tick)
board.cache_hierarchy.l1dcaches1.LoadLockedReq.mshrMissLatency::total      7114750                       # number of LoadLockedReq MSHR miss ticks (Tick)
board.cache_hierarchy.l1dcaches1.LoadLockedReq.mshrMissRate::processor.cores1.core.data     0.064966                       # mshr miss rate for LoadLockedReq accesses (Ratio)
board.cache_hierarchy.l1dcaches1.LoadLockedReq.mshrMissRate::total     0.064966                       # mshr miss rate for LoadLockedReq accesses (Ratio)
board.cache_hierarchy.l1dcaches1.LoadLockedReq.avgMshrMissLatency::processor.cores1.core.data 32487.442922                       # average LoadLockedReq mshr miss latency ((Tick/Count))
board.cache_hierarchy.l1dcaches1.LoadLockedReq.avgMshrMissLatency::total 32487.442922                       # average LoadLockedReq mshr miss latency ((Tick/Count))
board.cache_hierarchy.l1dcaches1.ReadReq.hits::processor.cores1.core.data      1076972                       # number of ReadReq hits (Count)
board.cache_hierarchy.l1dcaches1.ReadReq.hits::total      1076972                       # number of ReadReq hits (Count)
board.cache_hierarchy.l1dcaches1.ReadReq.misses::processor.cores1.core.data        27570                       # number of ReadReq misses (Count)
board.cache_hierarchy.l1dcaches1.ReadReq.misses::total        27570                       # number of ReadReq misses (Count)
board.cache_hierarchy.l1dcaches1.ReadReq.missLatency::processor.cores1.core.data    493345750                       # number of ReadReq miss ticks (Tick)
board.cache_hierarchy.l1dcaches1.ReadReq.missLatency::total    493345750                       # number of ReadReq miss ticks (Tick)
board.cache_hierarchy.l1dcaches1.ReadReq.accesses::processor.cores1.core.data      1104542                       # number of ReadReq accesses(hits+misses) (Count)
board.cache_hierarchy.l1dcaches1.ReadReq.accesses::total      1104542                       # number of ReadReq accesses(hits+misses) (Count)
board.cache_hierarchy.l1dcaches1.ReadReq.missRate::processor.cores1.core.data     0.024961                       # miss rate for ReadReq accesses (Ratio)
board.cache_hierarchy.l1dcaches1.ReadReq.missRate::total     0.024961                       # miss rate for ReadReq accesses (Ratio)
board.cache_hierarchy.l1dcaches1.ReadReq.avgMissLatency::processor.cores1.core.data 17894.296337                       # average ReadReq miss latency ((Tick/Count))
board.cache_hierarchy.l1dcaches1.ReadReq.avgMissLatency::total 17894.296337                       # average ReadReq miss latency ((Tick/Count))
board.cache_hierarchy.l1dcaches1.ReadReq.mshrHits::processor.cores1.core.data        15576                       # number of ReadReq MSHR hits (Count)
board.cache_hierarchy.l1dcaches1.ReadReq.mshrHits::total        15576                       # number of ReadReq MSHR hits (Count)
board.cache_hierarchy.l1dcaches1.ReadReq.mshrMisses::processor.cores1.core.data        11994                       # number of ReadReq MSHR misses (Count)
board.cache_hierarchy.l1dcaches1.ReadReq.mshrMisses::total        11994                       # number of ReadReq MSHR misses (Count)
board.cache_hierarchy.l1dcaches1.ReadReq.mshrMissLatency::processor.cores1.core.data    241947500                       # number of ReadReq MSHR miss ticks (Tick)
board.cache_hierarchy.l1dcaches1.ReadReq.mshrMissLatency::total    241947500                       # number of ReadReq MSHR miss ticks (Tick)
board.cache_hierarchy.l1dcaches1.ReadReq.mshrMissRate::processor.cores1.core.data     0.010859                       # mshr miss rate for ReadReq accesses (Ratio)
board.cache_hierarchy.l1dcaches1.ReadReq.mshrMissRate::total     0.010859                       # mshr miss rate for ReadReq accesses (Ratio)
board.cache_hierarchy.l1dcaches1.ReadReq.avgMshrMissLatency::processor.cores1.core.data 20172.377856                       # average ReadReq mshr miss latency ((Tick/Count))
board.cache_hierarchy.l1dcaches1.ReadReq.avgMshrMissLatency::total 20172.377856                       # average ReadReq mshr miss latency ((Tick/Count))
board.cache_hierarchy.l1dcaches1.StoreCondFailReq.missLatency::processor.cores1.core.data      3450000                       # number of StoreCondFailReq miss ticks (Tick)
board.cache_hierarchy.l1dcaches1.StoreCondFailReq.missLatency::total      3450000                       # number of StoreCondFailReq miss ticks (Tick)
board.cache_hierarchy.l1dcaches1.StoreCondFailReq.avgMissLatency::processor.cores1.core.data          inf                       # average StoreCondFailReq miss latency ((Tick/Count))
board.cache_hierarchy.l1dcaches1.StoreCondFailReq.avgMissLatency::total          inf                       # average StoreCondFailReq miss latency ((Tick/Count))
board.cache_hierarchy.l1dcaches1.StoreCondFailReq.mshrMissLatency::processor.cores1.core.data      3313500                       # number of StoreCondFailReq MSHR miss ticks (Tick)
board.cache_hierarchy.l1dcaches1.StoreCondFailReq.mshrMissLatency::total      3313500                       # number of StoreCondFailReq MSHR miss ticks (Tick)
board.cache_hierarchy.l1dcaches1.StoreCondFailReq.avgMshrMissLatency::processor.cores1.core.data          inf                       # average StoreCondFailReq mshr miss latency ((Tick/Count))
board.cache_hierarchy.l1dcaches1.StoreCondFailReq.avgMshrMissLatency::total          inf                       # average StoreCondFailReq mshr miss latency ((Tick/Count))
board.cache_hierarchy.l1dcaches1.StoreCondReq.hits::processor.cores1.core.data         1490                       # number of StoreCondReq hits (Count)
board.cache_hierarchy.l1dcaches1.StoreCondReq.hits::total         1490                       # number of StoreCondReq hits (Count)
board.cache_hierarchy.l1dcaches1.StoreCondReq.misses::processor.cores1.core.data         1229                       # number of StoreCondReq misses (Count)
board.cache_hierarchy.l1dcaches1.StoreCondReq.misses::total         1229                       # number of StoreCondReq misses (Count)
board.cache_hierarchy.l1dcaches1.StoreCondReq.missLatency::processor.cores1.core.data     40055000                       # number of StoreCondReq miss ticks (Tick)
board.cache_hierarchy.l1dcaches1.StoreCondReq.missLatency::total     40055000                       # number of StoreCondReq miss ticks (Tick)
board.cache_hierarchy.l1dcaches1.StoreCondReq.accesses::processor.cores1.core.data         2719                       # number of StoreCondReq accesses(hits+misses) (Count)
board.cache_hierarchy.l1dcaches1.StoreCondReq.accesses::total         2719                       # number of StoreCondReq accesses(hits+misses) (Count)
board.cache_hierarchy.l1dcaches1.StoreCondReq.missRate::processor.cores1.core.data     0.452004                       # miss rate for StoreCondReq accesses (Ratio)
board.cache_hierarchy.l1dcaches1.StoreCondReq.missRate::total     0.452004                       # miss rate for StoreCondReq accesses (Ratio)
board.cache_hierarchy.l1dcaches1.StoreCondReq.avgMissLatency::processor.cores1.core.data 32591.537836                       # average StoreCondReq miss latency ((Tick/Count))
board.cache_hierarchy.l1dcaches1.StoreCondReq.avgMissLatency::total 32591.537836                       # average StoreCondReq miss latency ((Tick/Count))
board.cache_hierarchy.l1dcaches1.StoreCondReq.mshrMisses::processor.cores1.core.data         1229                       # number of StoreCondReq MSHR misses (Count)
board.cache_hierarchy.l1dcaches1.StoreCondReq.mshrMisses::total         1229                       # number of StoreCondReq MSHR misses (Count)
board.cache_hierarchy.l1dcaches1.StoreCondReq.mshrMissLatency::processor.cores1.core.data     38088750                       # number of StoreCondReq MSHR miss ticks (Tick)
board.cache_hierarchy.l1dcaches1.StoreCondReq.mshrMissLatency::total     38088750                       # number of StoreCondReq MSHR miss ticks (Tick)
board.cache_hierarchy.l1dcaches1.StoreCondReq.mshrMissRate::processor.cores1.core.data     0.452004                       # mshr miss rate for StoreCondReq accesses (Ratio)
board.cache_hierarchy.l1dcaches1.StoreCondReq.mshrMissRate::total     0.452004                       # mshr miss rate for StoreCondReq accesses (Ratio)
board.cache_hierarchy.l1dcaches1.StoreCondReq.avgMshrMissLatency::processor.cores1.core.data 30991.659886                       # average StoreCondReq mshr miss latency ((Tick/Count))
board.cache_hierarchy.l1dcaches1.StoreCondReq.avgMshrMissLatency::total 30991.659886                       # average StoreCondReq mshr miss latency ((Tick/Count))
board.cache_hierarchy.l1dcaches1.SwapReq.hits::processor.cores1.core.data        16687                       # number of SwapReq hits (Count)
board.cache_hierarchy.l1dcaches1.SwapReq.hits::total        16687                       # number of SwapReq hits (Count)
board.cache_hierarchy.l1dcaches1.SwapReq.misses::processor.cores1.core.data        17068                       # number of SwapReq misses (Count)
board.cache_hierarchy.l1dcaches1.SwapReq.misses::total        17068                       # number of SwapReq misses (Count)
board.cache_hierarchy.l1dcaches1.SwapReq.missLatency::processor.cores1.core.data    592316500                       # number of SwapReq miss ticks (Tick)
board.cache_hierarchy.l1dcaches1.SwapReq.missLatency::total    592316500                       # number of SwapReq miss ticks (Tick)
board.cache_hierarchy.l1dcaches1.SwapReq.accesses::processor.cores1.core.data        33755                       # number of SwapReq accesses(hits+misses) (Count)
board.cache_hierarchy.l1dcaches1.SwapReq.accesses::total        33755                       # number of SwapReq accesses(hits+misses) (Count)
board.cache_hierarchy.l1dcaches1.SwapReq.missRate::processor.cores1.core.data     0.505644                       # miss rate for SwapReq accesses (Ratio)
board.cache_hierarchy.l1dcaches1.SwapReq.missRate::total     0.505644                       # miss rate for SwapReq accesses (Ratio)
board.cache_hierarchy.l1dcaches1.SwapReq.avgMissLatency::processor.cores1.core.data 34703.333724                       # average SwapReq miss latency ((Tick/Count))
board.cache_hierarchy.l1dcaches1.SwapReq.avgMissLatency::total 34703.333724                       # average SwapReq miss latency ((Tick/Count))
board.cache_hierarchy.l1dcaches1.SwapReq.mshrHits::processor.cores1.core.data            1                       # number of SwapReq MSHR hits (Count)
board.cache_hierarchy.l1dcaches1.SwapReq.mshrHits::total            1                       # number of SwapReq MSHR hits (Count)
board.cache_hierarchy.l1dcaches1.SwapReq.mshrMisses::processor.cores1.core.data        17067                       # number of SwapReq MSHR misses (Count)
board.cache_hierarchy.l1dcaches1.SwapReq.mshrMisses::total        17067                       # number of SwapReq MSHR misses (Count)
board.cache_hierarchy.l1dcaches1.SwapReq.mshrMissLatency::processor.cores1.core.data    562445500                       # number of SwapReq MSHR miss ticks (Tick)
board.cache_hierarchy.l1dcaches1.SwapReq.mshrMissLatency::total    562445500                       # number of SwapReq MSHR miss ticks (Tick)
board.cache_hierarchy.l1dcaches1.SwapReq.mshrMissRate::processor.cores1.core.data     0.505614                       # mshr miss rate for SwapReq accesses (Ratio)
board.cache_hierarchy.l1dcaches1.SwapReq.mshrMissRate::total     0.505614                       # mshr miss rate for SwapReq accesses (Ratio)
board.cache_hierarchy.l1dcaches1.SwapReq.avgMshrMissLatency::processor.cores1.core.data 32955.147360                       # average SwapReq mshr miss latency ((Tick/Count))
board.cache_hierarchy.l1dcaches1.SwapReq.avgMshrMissLatency::total 32955.147360                       # average SwapReq mshr miss latency ((Tick/Count))
board.cache_hierarchy.l1dcaches1.WriteReq.hits::processor.cores1.core.data       176625                       # number of WriteReq hits (Count)
board.cache_hierarchy.l1dcaches1.WriteReq.hits::total       176625                       # number of WriteReq hits (Count)
board.cache_hierarchy.l1dcaches1.WriteReq.misses::processor.cores1.core.data        17220                       # number of WriteReq misses (Count)
board.cache_hierarchy.l1dcaches1.WriteReq.misses::total        17220                       # number of WriteReq misses (Count)
board.cache_hierarchy.l1dcaches1.WriteReq.missLatency::processor.cores1.core.data    609064748                       # number of WriteReq miss ticks (Tick)
board.cache_hierarchy.l1dcaches1.WriteReq.missLatency::total    609064748                       # number of WriteReq miss ticks (Tick)
board.cache_hierarchy.l1dcaches1.WriteReq.accesses::processor.cores1.core.data       193845                       # number of WriteReq accesses(hits+misses) (Count)
board.cache_hierarchy.l1dcaches1.WriteReq.accesses::total       193845                       # number of WriteReq accesses(hits+misses) (Count)
board.cache_hierarchy.l1dcaches1.WriteReq.missRate::processor.cores1.core.data     0.088834                       # miss rate for WriteReq accesses (Ratio)
board.cache_hierarchy.l1dcaches1.WriteReq.missRate::total     0.088834                       # miss rate for WriteReq accesses (Ratio)
board.cache_hierarchy.l1dcaches1.WriteReq.avgMissLatency::processor.cores1.core.data 35369.613705                       # average WriteReq miss latency ((Tick/Count))
board.cache_hierarchy.l1dcaches1.WriteReq.avgMissLatency::total 35369.613705                       # average WriteReq miss latency ((Tick/Count))
board.cache_hierarchy.l1dcaches1.WriteReq.mshrHits::processor.cores1.core.data         4630                       # number of WriteReq MSHR hits (Count)
board.cache_hierarchy.l1dcaches1.WriteReq.mshrHits::total         4630                       # number of WriteReq MSHR hits (Count)
board.cache_hierarchy.l1dcaches1.WriteReq.mshrMisses::processor.cores1.core.data        12590                       # number of WriteReq MSHR misses (Count)
board.cache_hierarchy.l1dcaches1.WriteReq.mshrMisses::total        12590                       # number of WriteReq MSHR misses (Count)
board.cache_hierarchy.l1dcaches1.WriteReq.mshrMissLatency::processor.cores1.core.data    428152500                       # number of WriteReq MSHR miss ticks (Tick)
board.cache_hierarchy.l1dcaches1.WriteReq.mshrMissLatency::total    428152500                       # number of WriteReq MSHR miss ticks (Tick)
board.cache_hierarchy.l1dcaches1.WriteReq.mshrMissRate::processor.cores1.core.data     0.064949                       # mshr miss rate for WriteReq accesses (Ratio)
board.cache_hierarchy.l1dcaches1.WriteReq.mshrMissRate::total     0.064949                       # mshr miss rate for WriteReq accesses (Ratio)
board.cache_hierarchy.l1dcaches1.WriteReq.avgMshrMissLatency::processor.cores1.core.data 34007.347101                       # average WriteReq mshr miss latency ((Tick/Count))
board.cache_hierarchy.l1dcaches1.WriteReq.avgMshrMissLatency::total 34007.347101                       # average WriteReq mshr miss latency ((Tick/Count))
board.cache_hierarchy.l1dcaches1.power_state.pwrStateResidencyTicks::UNDEFINED  22376573250                       # Cumulative time (in ticks) in various power states (Tick)
board.cache_hierarchy.l1dcaches1.prefetcher.demandMshrMisses        24584                       # demands not covered by prefetchs (Count)
board.cache_hierarchy.l1dcaches1.prefetcher.pfIssued        16837                       # number of hwpf issued (Count)
board.cache_hierarchy.l1dcaches1.prefetcher.pfUnused          307                       # number of HardPF blocks evicted w/o reference (Count)
board.cache_hierarchy.l1dcaches1.prefetcher.pfUseful         4786                       # number of useful prefetch (Count)
board.cache_hierarchy.l1dcaches1.prefetcher.pfUsefulButMiss          342                       # number of hit on prefetch but cache block is not in an usable state (Count)
board.cache_hierarchy.l1dcaches1.prefetcher.accuracy     0.284255                       # accuracy of the prefetcher (Count)
board.cache_hierarchy.l1dcaches1.prefetcher.coverage     0.162955                       # coverage brought by this prefetcher (Count)
board.cache_hierarchy.l1dcaches1.prefetcher.pfHitInCache         9718                       # number of prefetches hitting in cache (Count)
board.cache_hierarchy.l1dcaches1.prefetcher.pfHitInMSHR         2222                       # number of prefetches hitting in a MSHR (Count)
board.cache_hierarchy.l1dcaches1.prefetcher.pfHitInWB            0                       # number of prefetches hit in the Write Buffer (Count)
board.cache_hierarchy.l1dcaches1.prefetcher.pfLate        11940                       # number of late prefetches (hitting in cache, MSHR or WB) (Count)
board.cache_hierarchy.l1dcaches1.prefetcher.pfIdentified        34216                       # number of prefetch candidates identified (Count)
board.cache_hierarchy.l1dcaches1.prefetcher.pfBufferHit        13437                       # number of redundant prefetches already in prefetch queue (Count)
board.cache_hierarchy.l1dcaches1.prefetcher.pfInCache            0                       # number of redundant prefetches already in cache/mshr dropped (Count)
board.cache_hierarchy.l1dcaches1.prefetcher.pfRemovedDemand           46                       # number of prefetches dropped due to a demand for the same address (Count)
board.cache_hierarchy.l1dcaches1.prefetcher.pfRemovedFull            0                       # number of prefetches dropped due to prefetch queue size (Count)
board.cache_hierarchy.l1dcaches1.prefetcher.pfSpanPage         2084                       # number of prefetches that crossed the page (Count)
board.cache_hierarchy.l1dcaches1.prefetcher.pfUsefulSpanPage           62                       # number of prefetches that is useful and crossed the page (Count)
board.cache_hierarchy.l1dcaches1.prefetcher.power_state.pwrStateResidencyTicks::UNDEFINED  22376573250                       # Cumulative time (in ticks) in various power states (Tick)
board.cache_hierarchy.l1dcaches1.tags.tagsInUse   218.003227                       # Average ticks per tags in use ((Tick/Count))
board.cache_hierarchy.l1dcaches1.tags.totalRefs      1327388                       # Total number of references to valid blocks. (Count)
board.cache_hierarchy.l1dcaches1.tags.sampledRefs        43810                       # Sample count of references to valid blocks. (Count)
board.cache_hierarchy.l1dcaches1.tags.avgRefs    30.298745                       # Average number of references to valid blocks. ((Count/Count))
board.cache_hierarchy.l1dcaches1.tags.warmupTick    291810250                       # The tick when the warmup percentage was hit. (Tick)
board.cache_hierarchy.l1dcaches1.tags.occupancies::cache_hierarchy.l1dcaches1.prefetcher    67.333098                       # Average occupied blocks per tick, per requestor ((Count/Tick))
board.cache_hierarchy.l1dcaches1.tags.occupancies::processor.cores1.core.data   150.670129                       # Average occupied blocks per tick, per requestor ((Count/Tick))
board.cache_hierarchy.l1dcaches1.tags.avgOccs::cache_hierarchy.l1dcaches1.prefetcher     0.131510                       # Average percentage of cache occupancy ((Ratio/Tick))
board.cache_hierarchy.l1dcaches1.tags.avgOccs::processor.cores1.core.data     0.294278                       # Average percentage of cache occupancy ((Ratio/Tick))
board.cache_hierarchy.l1dcaches1.tags.avgOccs::total     0.425788                       # Average percentage of cache occupancy ((Ratio/Tick))
board.cache_hierarchy.l1dcaches1.tags.occupanciesTaskId::1022           52                       # Occupied blocks per task id (Count)
board.cache_hierarchy.l1dcaches1.tags.occupanciesTaskId::1024          441                       # Occupied blocks per task id (Count)
board.cache_hierarchy.l1dcaches1.tags.ageTaskId_1022::1           42                       # Occupied blocks per task id, per block age (Count)
board.cache_hierarchy.l1dcaches1.tags.ageTaskId_1022::2            6                       # Occupied blocks per task id, per block age (Count)
board.cache_hierarchy.l1dcaches1.tags.ageTaskId_1022::3            4                       # Occupied blocks per task id, per block age (Count)
board.cache_hierarchy.l1dcaches1.tags.ageTaskId_1024::1          291                       # Occupied blocks per task id, per block age (Count)
board.cache_hierarchy.l1dcaches1.tags.ageTaskId_1024::2          132                       # Occupied blocks per task id, per block age (Count)
board.cache_hierarchy.l1dcaches1.tags.ageTaskId_1024::3           18                       # Occupied blocks per task id, per block age (Count)
board.cache_hierarchy.l1dcaches1.tags.ratioOccsTaskId::1022     0.101562                       # Ratio of occupied blocks and all blocks, per task id (Ratio)
board.cache_hierarchy.l1dcaches1.tags.ratioOccsTaskId::1024     0.861328                       # Ratio of occupied blocks and all blocks, per task id (Ratio)
board.cache_hierarchy.l1dcaches1.tags.tagAccesses     10749666                       # Number of tag accesses (Count)
board.cache_hierarchy.l1dcaches1.tags.dataAccesses     10749666                       # Number of data accesses (Count)
board.cache_hierarchy.l1dcaches1.tags.power_state.pwrStateResidencyTicks::UNDEFINED  22376573250                       # Cumulative time (in ticks) in various power states (Tick)
board.cache_hierarchy.l1icaches0.demandHits::processor.cores0.core.inst      1921217                       # number of demand (read+write) hits (Count)
board.cache_hierarchy.l1icaches0.demandHits::total      1921217                       # number of demand (read+write) hits (Count)
board.cache_hierarchy.l1icaches0.overallHits::processor.cores0.core.inst      1921217                       # number of overall hits (Count)
board.cache_hierarchy.l1icaches0.overallHits::total      1921217                       # number of overall hits (Count)
board.cache_hierarchy.l1icaches0.demandMisses::processor.cores0.core.inst         3529                       # number of demand (read+write) misses (Count)
board.cache_hierarchy.l1icaches0.demandMisses::total         3529                       # number of demand (read+write) misses (Count)
board.cache_hierarchy.l1icaches0.overallMisses::processor.cores0.core.inst         3529                       # number of overall misses (Count)
board.cache_hierarchy.l1icaches0.overallMisses::total         3529                       # number of overall misses (Count)
board.cache_hierarchy.l1icaches0.demandMissLatency::processor.cores0.core.inst    155728500                       # number of demand (read+write) miss ticks (Tick)
board.cache_hierarchy.l1icaches0.demandMissLatency::total    155728500                       # number of demand (read+write) miss ticks (Tick)
[...]
board.processor.cores1.core.fetch.cacheLines       261860                       # Number of cache lines fetched (Count)
board.processor.cores1.core.fetch.icacheSquashes        41971                       # Number of outstanding Icache misses that were squashed (Count)
board.processor.cores1.core.fetch.nisnDist::samples     18476401                       # Number of instructions fetched each cycle (Total) (Count)
board.processor.cores1.core.fetch.nisnDist::mean     0.533662                       # Number of instructions fetched each cycle (Total) (Count)
board.processor.cores1.core.fetch.nisnDist::stdev     1.269607                       # Number of instructions fetched each cycle (Total) (Count)
board.processor.cores1.core.fetch.nisnDist::underflows            0      0.00%      0.00% # Number of instructions fetched each cycle (Total) (Count)
board.processor.cores1.core.fetch.nisnDist::0     15222071     82.39%     82.39% # Number of instructions fetched each cycle (Total) (Count)
board.processor.cores1.core.fetch.nisnDist::1       761230      4.12%     86.51% # Number of instructions fetched each cycle (Total) (Count)
board.processor.cores1.core.fetch.nisnDist::2       253805      1.37%     87.88% # Number of instructions fetched each cycle (Total) (Count)
board.processor.cores1.core.fetch.nisnDist::3       365858      1.98%     89.86% # Number of instructions fetched each cycle (Total) (Count)
board.processor.cores1.core.fetch.nisnDist::4      1873437     10.14%    100.00% # Number of instructions fetched each cycle (Total) (Count)
board.processor.cores1.core.fetch.nisnDist::overflows            0      0.00%    100.00% # Number of instructions fetched each cycle (Total) (Count)
board.processor.cores1.core.fetch.nisnDist::min_value            0                       # Number of instructions fetched each cycle (Total) (Count)
board.processor.cores1.core.fetch.nisnDist::max_value            4                       # Number of instructions fetched each cycle (Total) (Count)
board.processor.cores1.core.fetch.nisnDist::total     18476401                       # Number of instructions fetched each cycle (Total) (Count)
board.processor.cores1.core.fetchStats0.numInsts      9819785                       # Number of instructions fetched (thread level) (Count)
board.processor.cores1.core.fetchStats0.numOps            0                       # Number of ops (including micro ops) fetched (thread level) (Count)
board.processor.cores1.core.fetchStats0.fetchRate     0.430363                       # Number of inst fetches per cycle ((Count/Cycle))
board.processor.cores1.core.fetchStats0.numBranches      2774343                       # Number of branches fetched (Count)
board.processor.cores1.core.fetchStats0.branchRate     0.121589                       # Number of branch fetches per cycle (Ratio)
board.processor.cores1.core.fetchStats0.icacheStallCycles      4976269                       # ICache total stall cycles (Cycle)
board.processor.cores1.core.fetchStats0.numFetchSuspends            0                       # Number of times Execute suspended instruction fetching (Count)
board.processor.cores1.core.iew.idleCycles            0                       # Number of cycles IEW is idle (Cycle)
board.processor.cores1.core.iew.squashCycles       110753                       # Number of cycles IEW is squashing (Cycle)
board.processor.cores1.core.iew.blockCycles      2135518                       # Number of cycles IEW is blocking (Cycle)
board.processor.cores1.core.iew.unblockCycles      3607967                       # Number of cycles IEW is unblocking (Cycle)
board.processor.cores1.core.iew.dispatchedInsts      7636405                       # Number of instructions dispatched to IQ (Count)
board.processor.cores1.core.iew.dispSquashedInsts         3010                       # Number of squashed instructions skipped by dispatch (Count)
board.processor.cores1.core.iew.dispLoadInsts      1770536                       # Number of dispatched load instructions (Count)
board.processor.cores1.core.iew.dispStoreInsts       644830                       # Number of dispatched store instructions (Count)
board.processor.cores1.core.iew.dispNonSpecInsts        38453                       # Number of dispatched non-speculative instructions (Count)
board.processor.cores1.core.iew.iqFullEvents        14922                       # Number of times the IQ has become full, causing a stall (Count)
board.processor.cores1.core.iew.lsqFullEvents      3570135                       # Number of times the LSQ has become full, causing a stall (Count)
board.processor.cores1.core.iew.memOrderViolationEvents          920                       # Number of memory order violations (Count)
board.processor.cores1.core.iew.predictedTakenIncorrect        31116                       # Number of branches that were predicted taken incorrectly (Count)
board.processor.cores1.core.iew.predictedNotTakenIncorrect        85121                       # Number of branches that were predicted not taken incorrectly (Count)
board.processor.cores1.core.iew.branchMispredicts       116237                       # Number of branch mispredicts detected at execute (Count)
board.processor.cores1.core.iew.instsToCommit      5196213                       # Cumulative count of insts sent to commit (Count)
board.processor.cores1.core.iew.writebackCount      5173254                       # Cumulative count of insts written-back (Count)
board.processor.cores1.core.iew.producerInst      2265155                       # Number of instructions producing a value (Count)
board.processor.cores1.core.iew.consumerInst      4064743                       # Number of instructions consuming a value (Count)
board.processor.cores1.core.iew.wbRate       0.226724                       # Insts written-back per cycle ((Count/Cycle))
board.processor.cores1.core.iew.wbFanout     0.557269                       # Average fanout of values written-back ((Count/Count))
board.processor.cores1.core.lsq0.forwLoads        28435                       # Number of loads that had data forwarded from stores (Count)
board.processor.cores1.core.lsq0.squashedLoads      1137184                       # Number of loads squashed (Count)
board.processor.cores1.core.lsq0.ignoredResponses           96                       # Number of memory responses ignored because the instruction is squashed (Count)
board.processor.cores1.core.lsq0.memOrderViolation          920                       # Number of memory ordering violations (Count)
board.processor.cores1.core.lsq0.squashedStores       414399                       # Number of stores squashed (Count)
board.processor.cores1.core.lsq0.rescheduledLoads           31                       # Number of loads that were rescheduled (Count)
board.processor.cores1.core.lsq0.blockedByCache          342                       # Number of times an access to memory failed due to the cache being blocked (Count)
board.processor.cores1.core.lsq0.loadToUse::samples       633352                       # Distribution of cycle latency between the first time a load is issued and its completion (Unspecified)
board.processor.cores1.core.lsq0.loadToUse::mean    43.998307                       # Distribution of cycle latency between the first time a load is issued and its completion (Unspecified)
board.processor.cores1.core.lsq0.loadToUse::stdev    10.802037                       # Distribution of cycle latency between the first time a load is issued and its completion (Unspecified)
board.processor.cores1.core.lsq0.loadToUse::0-9        14218      2.24%      2.24% # Distribution of cycle latency between the first time a load is issued and its completion (Unspecified)
board.processor.cores1.core.lsq0.loadToUse::10-19          286      0.05%      2.29% # Distribution of cycle latency between the first time a load is issued and its completion (Unspecified)
board.processor.cores1.core.lsq0.loadToUse::20-29          495      0.08%      2.37% # Distribution of cycle latency between the first time a load is issued and its completion (Unspecified)
board.processor.cores1.core.lsq0.loadToUse::30-39         1238      0.20%      2.56% # Distribution of cycle latency between the first time a load is issued and its completion (Unspecified)
board.processor.cores1.core.lsq0.loadToUse::40-49       599386     94.64%     97.20% # Distribution of cycle latency between the first time a load is issued and its completion (Unspecified)
board.processor.cores1.core.lsq0.loadToUse::50-59         3603      0.57%     97.77% # Distribution of cycle latency between the first time a load is issued and its completion (Unspecified)
board.processor.cores1.core.lsq0.loadToUse::60-69         1024      0.16%     97.93% # Distribution of cycle latency between the first time a load is issued and its completion (Unspecified)
board.processor.cores1.core.lsq0.loadToUse::70-79         8138      1.28%     99.22% # Distribution of cycle latency between the first time a load is issued and its completion (Unspecified)
board.processor.cores1.core.lsq0.loadToUse::80-89           80      0.01%     99.23% # Distribution of cycle latency between the first time a load is issued and its completion (Unspecified)
board.processor.cores1.core.lsq0.loadToUse::90-99          821      0.13%     99.36% # Distribution of cycle latency between the first time a load is issued and its completion (Unspecified)
board.processor.cores1.core.lsq0.loadToUse::100-109          165      0.03%     99.38% # Distribution of cycle latency between the first time a load is issued and its completion (Unspecified)
board.processor.cores1.core.lsq0.loadToUse::110-119           39      0.01%     99.39% # Distribution of cycle latency between the first time a load is issued and its completion (Unspecified)
board.processor.cores1.core.lsq0.loadToUse::120-129           49      0.01%     99.40% # Distribution of cycle latency between the first time a load is issued and its completion (Unspecified)
board.processor.cores1.core.lsq0.loadToUse::130-139         1165      0.18%     99.58% # Distribution of cycle latency between the first time a load is issued and its completion (Unspecified)
board.processor.cores1.core.lsq0.loadToUse::140-149         2597      0.41%     99.99% # Distribution of cycle latency between the first time a load is issued and its completion (Unspecified)
board.processor.cores1.core.lsq0.loadToUse::150-159           20      0.00%    100.00% # Distribution of cycle latency between the first time a load is issued and its completion (Unspecified)
board.processor.cores1.core.lsq0.loadToUse::160-169           13      0.00%    100.00% # Distribution of cycle latency between the first time a load is issued and its completion (Unspecified)
board.processor.cores1.core.lsq0.loadToUse::250-259            2      0.00%    100.00% # Distribution of cycle latency between the first time a load is issued and its completion (Unspecified)
board.processor.cores1.core.lsq0.loadToUse::260-269            4      0.00%    100.00% # Distribution of cycle latency between the first time a load is issued and its completion (Unspecified)
board.processor.cores1.core.lsq0.loadToUse::270-279            4      0.00%    100.00% # Distribution of cycle latency between the first time a load is issued and its completion (Unspecified)
board.processor.cores1.core.lsq0.loadToUse::280-289            1      0.00%    100.00% # Distribution of cycle latency between the first time a load is issued and its completion (Unspecified)
board.processor.cores1.core.lsq0.loadToUse::overflows            4      0.00%    100.00% # Distribution of cycle latency between the first time a load is issued and its completion (Unspecified)
board.processor.cores1.core.lsq0.loadToUse::min_value            2                       # Distribution of cycle latency between the first time a load is issued and its completion (Unspecified)
board.processor.cores1.core.lsq0.loadToUse::max_value          338                       # Distribution of cycle latency between the first time a load is issued and its completion (Unspecified)
board.processor.cores1.core.lsq0.loadToUse::total       633352                       # Distribution of cycle latency between the first time a load is issued and its completion (Unspecified)
board.processor.cores1.core.mmu.dtb.readHits            0                       # read hits (Count)
board.processor.cores1.core.mmu.dtb.readMisses            0                       # read misses (Count)
board.processor.cores1.core.mmu.dtb.readAccesses            0                       # read accesses (Count)
board.processor.cores1.core.mmu.dtb.writeHits            0                       # write hits (Count)
board.processor.cores1.core.mmu.dtb.writeMisses            0                       # write misses (Count)
board.processor.cores1.core.mmu.dtb.writeAccesses            0                       # write accesses (Count)
board.processor.cores1.core.mmu.dtb.hits            0                       # Total TLB (read and write) hits (Count)
board.processor.cores1.core.mmu.dtb.misses            0                       # Total TLB (read and write) misses (Count)
board.processor.cores1.core.mmu.dtb.accesses            0                       # Total TLB (read and write) accesses (Count)
board.processor.cores1.core.mmu.dtb.walker.power_state.pwrStateResidencyTicks::UNDEFINED  22376573250                       # Cumulative time (in ticks) in various power states (Tick)
board.processor.cores1.core.mmu.itb.readHits            0                       # read hits (Count)
board.processor.cores1.core.mmu.itb.readMisses            0                       # read misses (Count)
board.processor.cores1.core.mmu.itb.readAccesses            0                       # read accesses (Count)
board.processor.cores1.core.mmu.itb.writeHits            0                       # write hits (Count)
board.processor.cores1.core.mmu.itb.writeMisses            0                       # write misses (Count)
board.processor.cores1.core.mmu.itb.writeAccesses            0                       # write accesses (Count)
board.processor.cores1.core.mmu.itb.hits            0                       # Total TLB (read and write) hits (Count)
board.processor.cores1.core.mmu.itb.misses            0                       # Total TLB (read and write) misses (Count)
board.processor.cores1.core.mmu.itb.accesses            0                       # Total TLB (read and write) accesses (Count)
board.processor.cores1.core.mmu.itb.walker.power_state.pwrStateResidencyTicks::UNDEFINED  22376573250                       # Cumulative time (in ticks) in various power states (Tick)
board.processor.cores1.core.power_state.numTransitions          423                       # Number of power state transitions (Count)
board.processor.cores1.core.power_state.ticksClkGated::samples          212                       # Distribution of time spent in the clock gated state (Tick)
board.processor.cores1.core.power_state.ticksClkGated::mean 77266714.622642                       # Distribution of time spent in the clock gated state (Tick)
board.processor.cores1.core.power_state.ticksClkGated::stdev 1090507347.973269                       # Distribution of time spent in the clock gated state (Tick)
board.processor.cores1.core.power_state.ticksClkGated::1000-5e+10          212    100.00%    100.00% # Distribution of time spent in the clock gated state (Tick)
board.processor.cores1.core.power_state.ticksClkGated::min_value        12750                       # Distribution of time spent in the clock gated state (Tick)
board.processor.cores1.core.power_state.ticksClkGated::max_value  15880151000                       # Distribution of time spent in the clock gated state (Tick)
board.processor.cores1.core.power_state.ticksClkGated::total          212                       # Distribution of time spent in the clock gated state (Tick)
board.processor.cores1.core.power_state.pwrStateResidencyTicks::ON   5996029750                       # Cumulative time (in ticks) in various power states (Tick)
board.processor.cores1.core.power_state.pwrStateResidencyTicks::CLK_GATED  16380543500                       # Cumulative time (in ticks) in various power states (Tick)
board.processor.cores1.core.rename.squashCycles       110753                       # Number of cycles rename is squashing (Cycle)
board.processor.cores1.core.rename.idleCycles      4193670                       # Number of cycles rename is idle (Cycle)
board.processor.cores1.core.rename.blockCycles      7833347                       # Number of cycles rename is blocking (Cycle)
board.processor.cores1.core.rename.serializeStallCycles       790408                       # count of cycles rename stalled for serializing inst (Cycle)
board.processor.cores1.core.rename.runCycles      2082906                       # Number of cycles rename is running (Cycle)
board.processor.cores1.core.rename.unblockCycles      3465317                       # Number of cycles rename is unblocking (Cycle)
board.processor.cores1.core.rename.renamedInsts      7802887                       # Number of instructions processed by rename (Count)
board.processor.cores1.core.rename.ROBFullEvents       238023                       # Number of times rename has blocked due to ROB full (Count)
board.processor.cores1.core.rename.IQFullEvents        51959                       # Number of times rename has blocked due to IQ full (Count)
board.processor.cores1.core.rename.LQFullEvents      3130256                       # Number of times rename has blocked due to LQ full (Count)
board.processor.cores1.core.rename.SQFullEvents        11211                       # Number of times rename has blocked due to SQ full (Count)
board.processor.cores1.core.rename.renamedOperands      4985611                       # Number of destination operands rename has renamed (Count)
board.processor.cores1.core.rename.lookups      9744226                       # Number of register rename lookups that rename has made (Count)
board.processor.cores1.core.rename.intLookups      9663007                       # Number of integer rename lookups (Count)
board.processor.cores1.core.rename.fpLookups           12                       # Number of floating rename lookups (Count)
board.processor.cores1.core.rename.committedMaps      1694248                       # Number of HB maps that are committed (Count)
board.processor.cores1.core.rename.undoneMaps      3291363                       # Number of HB maps that are undone due to squashing (Count)
board.processor.cores1.core.rename.serializing         4287                       # count of serializing insts renamed (Count)
board.processor.cores1.core.rename.tempSerializing         4495                       # count of temporary serializing insts renamed (Count)
board.processor.cores1.core.rename.skidInsts      1040919                       # count of insts added to the skid buffer (Count)
board.processor.cores1.core.rob.reads        24531989                       # The number of ROB reads (Count)
board.processor.cores1.core.rob.writes       16624015                       # The number of ROB writes (Count)
board.processor.cores1.core.thread_0.numInsts      2490854                       # Number of Instructions committed (Count)
board.processor.cores1.core.thread_0.numOps      2528234                       # Number of Ops committed (Count)
board.processor.cores1.core.thread_0.numMemRefs            0                       # Number of Memory References (Count)
board.workload.inst.arm                             0                       # number of arm instructions executed (Count)
board.workload.inst.quiesce                         0                       # number of quiesce instructions executed (Count)

---------- End Simulation Statistics   ----------
