
---------- Begin Simulation Statistics ----------
simSeconds                                   0.170024                       # Number of seconds simulated (Second)
simTicks                                 170023877260                       # Number of ticks simulated (Tick)
finalTick                                170023877260                       # Number of ticks from beginning of simulation (restored from checkpoints and never reset) (Tick)
simFreq                                  1000000000000                       # The number of ticks per simulated second ((Tick/Second))
hostSeconds                                   2434.55                       # Real time elapsed on the host (Second)
hostTickRate                                 69837955                       # The number of ticks simulated per host second (ticks/s) ((Tick/Second))
hostMemory                                    8629456                       # Number of bytes of host memory used (Byte)
simInsts                                    400856087                       # Number of instructions simulated (Count)
simOps                                      400856154                       # Number of ops (including micro ops) simulated (Count)
hostInstRate                                   164653                       # Simulator instruction rate (inst/s) ((Count/Second))
hostOpRate                                     164653                       # Simulator op (including micro ops) rate (op/s) ((Count/Second))
board.cache_hierarchy.dptw_caches0.blockedCycles::no_mshrs            0                       # number of cycles access was blocked (Cycle)
board.cache_hierarchy.dptw_caches0.blockedCycles::no_targets            0                       # number of cycles access was blocked (Cycle)
board.cache_hierarchy.dptw_caches0.blockedCauses::no_mshrs            0                       # number of times access was blocked (Count)
board.cache_hierarchy.dptw_caches0.blockedCauses::no_targets            0                       # number of times access was blocked (Count)
board.cache_hierarchy.dptw_caches0.avgBlocked::no_mshrs          nan                       # average number of cycles each access was blocked ((Cycle/Count))
board.cache_hierarchy.dptw_caches0.avgBlocked::no_targets          nan                       # average number of cycles each access was blocked ((Cycle/Count))
board.cache_hierarchy.dptw_caches0.replacements            0                       # number of replacements (Count)
board.cache_hierarchy.dptw_caches0.power_state.pwrStateResidencyTicks::UNDEFINED 170023877260                       # Cumulative time (in ticks) in various power states (Tick)
board.cache_hierarchy.dptw_caches0.tags.tagsInUse            0                       # Average ticks per tags in use ((Tick/Count))
board.cache_hierarchy.dptw_caches0.tags.totalRefs            0                       # Total number of references to valid blocks. (Count)
board.cache_hierarchy.dptw_caches0.tags.sampledRefs            0                       # Sample count of references to valid blocks. (Count)
board.cache_hierarchy.dptw_caches0.tags.avgRefs          nan                       # Average number of references to valid blocks. ((Count/Count))
board.cache_hierarchy.dptw_caches0.tags.warmupTick            0                       # The tick when the warmup percentage was hit. (Tick)
board.cache_hierarchy.dptw_caches0.tags.tagAccesses            0                       # Number of tag accesses (Count)
board.cache_hierarchy.dptw_caches0.tags.dataAccesses            0                       # Number of data accesses (Count)
board.cache_hierarchy.dptw_caches0.tags.power_state.pwrStateResidencyTicks::UNDEFINED 170023877260                       # Cumulative time (in ticks) in various power states (Tick)
board.cache_hierarchy.dptw_caches1.blockedCycles::no_mshrs            0                       # number of cycles access was blocked (Cycle)
board.cache_hierarchy.dptw_caches1.blockedCycles::no_targets            0                       # number of cycles access was blocked (Cycle)
board.cache_hierarchy.dptw_caches1.blockedCauses::no_mshrs            0                       # number of times access was blocked (Count)
board.cache_hierarchy.dptw_caches1.blockedCauses::no_targets            0                       # number of times access was blocked (Count)
board.cache_hierarchy.dptw_caches1.avgBlocked::no_mshrs          nan                       # average number of cycles each access was blocked ((Cycle/Count))
board.cache_hierarchy.dptw_caches1.avgBlocked::no_targets          nan                       # average number of cycles each access was blocked ((Cycle/Count))
board.cache_hierarchy.dptw_caches1.replacements            0                       # number of replacements (Count)
board.cache_hierarchy.dptw_caches1.power_state.pwrStateResidencyTicks::UNDEFINED 170023877260                       # Cumulative time (in ticks) in various power states (Tick)
board.cache_hierarchy.dptw_caches1.tags.tagsInUse            0                       # Average ticks per tags in use ((Tick/Count))
board.cache_hierarchy.dptw_caches1.tags.totalRefs            0                       # Total number of references to valid blocks. (Count)
board.cache_hierarchy.dptw_caches1.tags.sampledRefs            0                       # Sample count of references to valid blocks. (Count)
board.cache_hierarchy.dptw_caches1.tags.avgRefs          nan                       # Average number of references to valid blocks. ((Count/Count))
board.cache_hierarchy.dptw_caches1.tags.warmupTick            0                       # The tick when the warmup percentage was hit. (Tick)
board.cache_hierarchy.dptw_caches1.tags.tagAccesses            0                       # Number of tag accesses (Count)
board.cache_hierarchy.dptw_caches1.tags.dataAccesses            0                       # Number of data accesses (Count)
board.cache_hierarchy.dptw_caches1.tags.power_state.pwrStateResidencyTicks::UNDEFINED 170023877260                       # Cumulative time (in ticks) in various power states (Tick)
board.cache_hierarchy.iptw_caches0.blockedCycles::no_mshrs            0                       # number of cycles access was blocked (Cycle)
board.cache_hierarchy.iptw_caches0.blockedCycles::no_targets            0                       # number of cycles access was blocked (Cycle)
board.cache_hierarchy.iptw_caches0.blockedCauses::no_mshrs            0                       # number of times access was blocked (Count)
board.cache_hierarchy.iptw_caches0.blockedCauses::no_targets            0                       # number of times access was blocked (Count)
board.cache_hierarchy.iptw_caches0.avgBlocked::no_mshrs          nan                       # average number of cycles each access was blocked ((Cycle/Count))
board.cache_hierarchy.iptw_caches0.avgBlocked::no_targets          nan                       # average number of cycles each access was blocked ((Cycle/Count))
board.cache_hierarchy.iptw_caches0.replacements            0                       # number of replacements (Count)
board.cache_hierarchy.iptw_caches0.power_state.pwrStateResidencyTicks::UNDEFINED 170023877260                       # Cumulative time (in ticks) in various power states (Tick)
board.cache_hierarchy.iptw_caches0.tags.tagsInUse            0                       # Average ticks per tags in use ((Tick/Count))
board.cache_hierarchy.iptw_caches0.tags.totalRefs            0                       # Total number of references to valid blocks. (Count)
board.cache_hierarchy.iptw_caches0.tags.sampledRefs            0                       # Sample count of references to valid blocks. (Count)
board.cache_hierarchy.iptw_caches0.tags.avgRefs          nan                       # Average number of references to valid blocks. ((Count/Count))
board.cache_hierarchy.iptw_caches0.tags.warmupTick            0                       # The tick when the warmup percentage was hit. (Tick)
board.cache_hierarchy.iptw_caches0.tags.tagAccesses            0                       # Number of tag accesses (Count)
board.cache_hierarchy.iptw_caches0.tags.dataAccesses            0                       # Number of data accesses (Count)
board.cache_hierarchy.iptw_caches0.tags.power_state.pwrStateResidencyTicks::UNDEFINED 170023877260                       # Cumulative time (in ticks) in various power states (Tick)
board.cache_hierarchy.iptw_caches1.blockedCycles::no_mshrs            0                       # number of cycles access was blocked (Cycle)
board.cache_hierarchy.iptw_caches1.blockedCycles::no_targets            0                       # number of cycles access was blocked (Cycle)
board.cache_hierarchy.iptw_caches1.blockedCauses::no_mshrs            0                       # number of times access was blocked (Count)
board.cache_hierarchy.iptw_caches1.blockedCauses::no_targets            0                       # number of times access was blocked (Count)
board.cache_hierarchy.iptw_caches1.avgBlocked::no_mshrs          nan                       # average number of cycles each access was blocked ((Cycle/Count))
board.cache_hierarchy.iptw_caches1.avgBlocked::no_targets          nan                       # average number of cycles each access was blocked ((Cycle/Count))
board.cache_hierarchy.iptw_caches1.replacements            0                       # number of replacements (Count)
board.cache_hierarchy.iptw_caches1.power_state.pwrStateResidencyTicks::UNDEFINED 170023877260                       # Cumulative time (in ticks) in various power states (Tick)
board.cache_hierarchy.iptw_caches1.tags.tagsInUse            0                       # Average ticks per tags in use ((Tick/Count))
board.cache_hierarchy.iptw_caches1.tags.totalRefs            0                       # Total number of references to valid blocks. (Count)
board.cache_hierarchy.iptw_caches1.tags.sampledRefs            0                       # Sample count of references to valid blocks. (Count)
board.cache_hierarchy.iptw_caches1.tags.avgRefs          nan                       # Average number of references to valid blocks. ((Count/Count))
board.cache_hierarchy.iptw_caches1.tags.warmupTick            0                       # The tick when the warmup percentage was hit. (Tick)
board.cache_hierarchy.iptw_caches1.tags.tagAccesses            0                       # Number of tag accesses (Count)
board.cache_hierarchy.iptw_caches1.tags.dataAccesses            0                       # Number of data accesses (Count)
board.cache_hierarchy.iptw_caches1.tags.power_state.pwrStateResidencyTicks::UNDEFINED 170023877260                       # Cumulative time (in ticks) in various power states (Tick)
board.cache_hierarchy.l1dcaches0.demandHits::processor.cores0.core.data    107087568                       # number of demand (read+write) hits (Count)
board.cache_hierarchy.l1dcaches0.demandHits::total    107087568                       # number of demand (read+write) hits (Count)
board.cache_hierarchy.l1dcaches0.overallHits::processor.cores0.core.data    107087568                       # number of overall hits (Count)
board.cache_hierarchy.l1dcaches0.overallHits::total    107087568                       # number of overall hits (Count)
board.cache_hierarchy.l1dcaches0.demandMisses::processor.cores0.core.data     10517676                       # number of demand (read+write) misses (Count)
board.cache_hierarchy.l1dcaches0.demandMisses::total     10517676                       # number of demand (read+write) misses (Count)
board.cache_hierarchy.l1dcaches0.overallMisses::processor.cores0.core.data     10517676                       # number of overall misses (Count)
board.cache_hierarchy.l1dcaches0.overallMisses::total     10517676                       # number of overall misses (Count)
board.cache_hierarchy.l1dcaches0.demandMissLatency::processor.cores0.core.data 229584688021                       # number of demand (read+write) miss ticks (Tick)
board.cache_hierarchy.l1dcaches0.demandMissLatency::total 229584688021                       # number of demand (read+write) miss ticks (Tick)
board.cache_hierarchy.l1dcaches0.overallMissLatency::processor.cores0.core.data 229584688021                       # number of overall miss ticks (Tick)
board.cache_hierarchy.l1dcaches0.overallMissLatency::total 229584688021                       # number of overall miss ticks (Tick)
board.cache_hierarchy.l1dcaches0.demandAccesses::processor.cores0.core.data    117605244                       # number of demand (read+write) accesses (Count)
board.cache_hierarchy.l1dcaches0.demandAccesses::total    117605244                       # number of demand (read+write) accesses (Count)
board.cache_hierarchy.l1dcaches0.overallAccesses::processor.cores0.core.data    117605244                       # number of overall (read+write) accesses (Count)
board.cache_hierarchy.l1dcaches0.overallAccesses::total    117605244                       # number of overall (read+write) accesses (Count)
board.cache_hierarchy.l1dcaches0.demandMissRate::processor.cores0.core.data     0.089432                       # miss rate for demand accesses (Ratio)
board.cache_hierarchy.l1dcaches0.demandMissRate::total     0.089432                       # miss rate for demand accesses (Ratio)
board.cache_hierarchy.l1dcaches0.overallMissRate::processor.cores0.core.data     0.089432                       # miss rate for overall accesses (Ratio)
board.cache_hierarchy.l1dcaches0.overallMissRate::total     0.089432                       # miss rate for overall accesses (Ratio)
board.cache_hierarchy.l1dcaches0.demandAvgMissLatency::processor.cores0.core.data 21828.461727                       # average overall miss latency in ticks ((Tick/Count))
board.cache_hierarchy.l1dcaches0.demandAvgMissLatency::total 21828.461727                       # average overall miss latency in ticks ((Tick/Count))
board.cache_hierarchy.l1dcaches0.overallAvgMissLatency::processor.cores0.core.data 21828.461727                       # average overall miss latency ((Tick/Count))
board.cache_hierarchy.l1dcaches0.overallAvgMissLatency::total 21828.461727                       # average overall miss latency ((Tick/Count))
board.cache_hierarchy.l1dcaches0.blockedCycles::no_mshrs            0                       # number of cycles access was blocked (Cycle)
board.cache_hierarchy.l1dcaches0.blockedCycles::no_targets       253542                       # number of cycles access was blocked (Cycle)
board.cache_hierarchy.l1dcaches0.blockedCauses::no_mshrs            0                       # number of times access was blocked (Count)
board.cache_hierarchy.l1dcaches0.blockedCauses::no_targets        12476                       # number of times access was blocked (Count)
board.cache_hierarchy.l1dcaches0.avgBlocked::no_mshrs          nan                       # average number of cycles each access was blocked ((Cycle/Count))
board.cache_hierarchy.l1dcaches0.avgBlocked::no_targets    20.322379                       # average number of cycles each access was blocked ((Cycle/Count))
board.cache_hierarchy.l1dcaches0.writebacks::writebacks       621853                       # number of writebacks (Count)
board.cache_hierarchy.l1dcaches0.writebacks::total       621853                       # number of writebacks (Count)
board.cache_hierarchy.l1dcaches0.demandMshrHits::processor.cores0.core.data      8743988                       # number of demand (read+write) MSHR hits (Count)
board.cache_hierarchy.l1dcaches0.demandMshrHits::total      8743988                       # number of demand (read+write) MSHR hits (Count)
board.cache_hierarchy.l1dcaches0.overallMshrHits::processor.cores0.core.data      8743988                       # number of overall MSHR hits (Count)
board.cache_hierarchy.l1dcaches0.overallMshrHits::total      8743988                       # number of overall MSHR hits (Count)
board.cache_hierarchy.l1dcaches0.demandMshrMisses::processor.cores0.core.data      1773688                       # number of demand (read+write) MSHR misses (Count)
board.cache_hierarchy.l1dcaches0.demandMshrMisses::total      1773688                       # number of demand (read+write) MSHR misses (Count)
board.cache_hierarchy.l1dcaches0.overallMshrMisses::cache_hierarchy.l1dcaches0.prefetcher      5212184                       # number of overall MSHR misses (Count)
board.cache_hierarchy.l1dcaches0.overallMshrMisses::processor.cores0.core.data      1773688                       # number of overall MSHR misses (Count)
board.cache_hierarchy.l1dcaches0.overallMshrMisses::total      6985872                       # number of overall MSHR misses (Count)
board.cache_hierarchy.l1dcaches0.demandMshrMissLatency::processor.cores0.core.data  46888300850                       # number of demand (read+write) MSHR miss ticks (Tick)
board.cache_hierarchy.l1dcaches0.demandMshrMissLatency::total  46888300850                       # number of demand (read+write) MSHR miss ticks (Tick)
board.cache_hierarchy.l1dcaches0.overallMshrMissLatency::cache_hierarchy.l1dcaches0.prefetcher  92335011586                       # number of overall MSHR miss ticks (Tick)
board.cache_hierarchy.l1dcaches0.overallMshrMissLatency::processor.cores0.core.data  46888300850                       # number of overall MSHR miss ticks (Tick)
board.cache_hierarchy.l1dcaches0.overallMshrMissLatency::total 139223312436                       # number of overall MSHR miss ticks (Tick)
board.cache_hierarchy.l1dcaches0.demandMshrMissRate::processor.cores0.core.data     0.015082                       # mshr miss ratio for demand accesses (Ratio)
board.cache_hierarchy.l1dcaches0.demandMshrMissRate::total     0.015082                       # mshr miss ratio for demand accesses (Ratio)
board.cache_hierarchy.l1dcaches0.overallMshrMissRate::cache_hierarchy.l1dcaches0.prefetcher          inf                       # mshr miss ratio for overall accesses (Ratio)
board.cache_hierarchy.l1dcaches0.overallMshrMissRate::processor.cores0.core.data     0.015082                       # mshr miss ratio for overall accesses (Ratio)
board.cache_hierarchy.l1dcaches0.overallMshrMissRate::total     0.059401                       # mshr miss ratio for overall accesses (Ratio)
board.cache_hierarchy.l1dcaches0.demandAvgMshrMissLatency::processor.cores0.core.data 26435.484059                       # average overall mshr miss latency ((Tick/Count))
board.cache_hierarchy.l1dcaches0.demandAvgMshrMissLatency::total 26435.484059                       # average overall mshr miss latency ((Tick/Count))
board.cache_hierarchy.l1dcaches0.overallAvgMshrMissLatency::cache_hierarchy.l1dcaches0.prefetcher 17715.224863                       # average overall mshr miss latency ((Tick/Count))
board.cache_hierarchy.l1dcaches0.overallAvgMshrMissLatency::processor.cores0.core.data 26435.484059                       # average overall mshr miss latency ((Tick/Count))
board.cache_hierarchy.l1dcaches0.overallAvgMshrMissLatency::total 19929.267590                       # average overall mshr miss latency ((Tick/Count))
board.cache_hierarchy.l1dcaches0.replacements      6862473                       # number of replacements (Count)
board.cache_hierarchy.l1dcaches0.HardPFReq.mshrMisses::cache_hierarchy.l1dcaches0.prefetcher      5212184                       # number of HardPFReq MSHR misses (Count)
board.cache_hierarchy.l1dcaches0.HardPFReq.mshrMisses::total      5212184                       # number of HardPFReq MSHR misses (Count)
board.cache_hierarchy.l1dcaches0.HardPFReq.mshrMissLatency::cache_hierarchy.l1dcaches0.prefetcher  92335011586                       # number of HardPFReq MSHR miss ticks (Tick)
board.cache_hierarchy.l1dcaches0.HardPFReq.mshrMissLatency::total  92335011586                       # number of HardPFReq MSHR miss ticks (Tick)
board.cache_hierarchy.l1dcaches0.HardPFReq.mshrMissRate::cache_hierarchy.l1dcaches0.prefetcher          inf                       # mshr miss rate for HardPFReq accesses (Ratio)
board.cache_hierarchy.l1dcaches0.HardPFReq.mshrMissRate::total          inf                       # mshr miss rate for HardPFReq accesses (Ratio)
board.cache_hierarchy.l1dcaches0.HardPFReq.avgMshrMissLatency::cache_hierarchy.l1dcaches0.prefetcher 17715.224863                       # average HardPFReq mshr miss latency ((Tick/Count))
board.cache_hierarchy.l1dcaches0.HardPFReq.avgMshrMissLatency::total 17715.224863                       # average HardPFReq mshr miss latency ((Tick/Count))
board.cache_hierarchy.l1dcaches0.LoadLockedReq.hits::processor.cores0.core.data           43                       # number of LoadLockedReq hits (Count)
board.cache_hierarchy.l1dcaches0.LoadLockedReq.hits::total           43                       # number of LoadLockedReq hits (Count)
board.cache_hierarchy.l1dcaches0.LoadLockedReq.misses::processor.cores0.core.data           20                       # number of LoadLockedReq misses (Count)
board.cache_hierarchy.l1dcaches0.LoadLockedReq.misses::total           20                       # number of LoadLockedReq misses (Count)
board.cache_hierarchy.l1dcaches0.LoadLockedReq.missLatency::processor.cores0.core.data       687360                       # number of LoadLockedReq miss ticks (Tick)
board.cache_hierarchy.l1dcaches0.LoadLockedReq.missLatency::total       687360                       # number of LoadLockedReq miss ticks (Tick)
board.cache_hierarchy.l1dcaches0.LoadLockedReq.accesses::processor.cores0.core.data           63                       # number of LoadLockedReq accesses(hits+misses) (Count)
board.cache_hierarchy.l1dcaches0.LoadLockedReq.accesses::total           63                       # number of LoadLockedReq accesses(hits+misses) (Count)
board.cache_hierarchy.l1dcaches0.LoadLockedReq.missRate::processor.cores0.core.data     0.317460                       # miss rate for LoadLockedReq accesses (Ratio)
board.cache_hierarchy.l1dcaches0.LoadLockedReq.missRate::total     0.317460                       # miss rate for LoadLockedReq accesses (Ratio)
board.cache_hierarchy.l1dcaches0.LoadLockedReq.avgMissLatency::processor.cores0.core.data        34368                       # average LoadLockedReq miss latency ((Tick/Count))
board.cache_hierarchy.l1dcaches0.LoadLockedReq.avgMissLatency::total        34368                       # average LoadLockedReq miss latency ((Tick/Count))
board.cache_hierarchy.l1dcaches0.LoadLockedReq.mshrHits::processor.cores0.core.data           18                       # number of LoadLockedReq MSHR hits (Count)
board.cache_hierarchy.l1dcaches0.LoadLockedReq.mshrHits::total           18                       # number of LoadLockedReq MSHR hits (Count)
board.cache_hierarchy.l1dcaches0.LoadLockedReq.mshrMisses::processor.cores0.core.data            2                       # number of LoadLockedReq MSHR misses (Count)
board.cache_hierarchy.l1dcaches0.LoadLockedReq.mshrMisses::total            2                       # number of LoadLockedReq MSHR misses (Count)
board.cache_hierarchy.l1dcaches0.LoadLockedReq.mshrMissLatency::processor.cores0.core.data        99840                       # number of LoadLockedReq MSHR miss ticks (Tick)
board.cache_hierarchy.l1dcaches0.LoadLockedReq.mshrMissLatency::total        99840                       # number of LoadLockedReq MSHR miss ticks (Tick)
board.cache_hierarchy.l1dcaches0.LoadLockedReq.mshrMissRate::processor.cores0.core.data     0.031746                       # mshr miss rate for LoadLockedReq accesses (Ratio)
board.cache_hierarchy.l1dcaches0.LoadLockedReq.mshrMissRate::total     0.031746                       # mshr miss rate for LoadLockedReq accesses (Ratio)
board.cache_hierarchy.l1dcaches0.LoadLockedReq.avgMshrMissLatency::processor.cores0.core.data        49920                       # average LoadLockedReq mshr miss latency ((Tick/Count))
board.cache_hierarchy.l1dcaches0.LoadLockedReq.avgMshrMissLatency::total        49920                       # average LoadLockedReq mshr miss latency ((Tick/Count))
board.cache_hierarchy.l1dcaches0.ReadReq.hits::processor.cores0.core.data    102179603                       # number of ReadReq hits (Count)
board.cache_hierarchy.l1dcaches0.ReadReq.hits::total    102179603                       # number of ReadReq hits (Count)
board.cache_hierarchy.l1dcaches0.ReadReq.misses::processor.cores0.core.data     10104753                       # number of ReadReq misses (Count)
board.cache_hierarchy.l1dcaches0.ReadReq.misses::total     10104753                       # number of ReadReq misses (Count)
board.cache_hierarchy.l1dcaches0.ReadReq.missLatency::processor.cores0.core.data 219065660080                       # number of ReadReq miss ticks (Tick)
board.cache_hierarchy.l1dcaches0.ReadReq.missLatency::total 219065660080                       # number of ReadReq miss ticks (Tick)
board.cache_hierarchy.l1dcaches0.ReadReq.accesses::processor.cores0.core.data    112284356                       # number of ReadReq accesses(hits+misses) (Count)
board.cache_hierarchy.l1dcaches0.ReadReq.accesses::total    112284356                       # number of ReadReq accesses(hits+misses) (Count)
board.cache_hierarchy.l1dcaches0.ReadReq.missRate::processor.cores0.core.data     0.089993                       # miss rate for ReadReq accesses (Ratio)
board.cache_hierarchy.l1dcaches0.ReadReq.missRate::total     0.089993                       # miss rate for ReadReq accesses (Ratio)
board.cache_hierarchy.l1dcaches0.ReadReq.avgMissLatency::processor.cores0.core.data 21679.467086                       # average ReadReq miss latency ((Tick/Count))
board.cache_hierarchy.l1dcaches0.ReadReq.avgMissLatency::total 21679.467086                       # average ReadReq miss latency ((Tick/Count))
board.cache_hierarchy.l1dcaches0.ReadReq.mshrHits::processor.cores0.core.data      8516537                       # number of ReadReq MSHR hits (Count)
board.cache_hierarchy.l1dcaches0.ReadReq.mshrHits::total      8516537                       # number of ReadReq MSHR hits (Count)
board.cache_hierarchy.l1dcaches0.ReadReq.mshrMisses::processor.cores0.core.data      1588216                       # number of ReadReq MSHR misses (Count)
board.cache_hierarchy.l1dcaches0.ReadReq.mshrMisses::total      1588216                       # number of ReadReq MSHR misses (Count)
board.cache_hierarchy.l1dcaches0.ReadReq.mshrMissLatency::processor.cores0.core.data  42413842340                       # number of ReadReq MSHR miss ticks (Tick)
board.cache_hierarchy.l1dcaches0.ReadReq.mshrMissLatency::total  42413842340                       # number of ReadReq MSHR miss ticks (Tick)
board.cache_hierarchy.l1dcaches0.ReadReq.mshrMissRate::processor.cores0.core.data     0.014145                       # mshr miss rate for ReadReq accesses (Ratio)
board.cache_hierarchy.l1dcaches0.ReadReq.mshrMissRate::total     0.014145                       # mshr miss rate for ReadReq accesses (Ratio)
board.cache_hierarchy.l1dcaches0.ReadReq.avgMshrMissLatency::processor.cores0.core.data 26705.336264                       # average ReadReq mshr miss latency ((Tick/Count))
board.cache_hierarchy.l1dcaches0.ReadReq.avgMshrMissLatency::total 26705.336264                       # average ReadReq mshr miss latency ((Tick/Count))
board.cache_hierarchy.l1dcaches0.StoreCondReq.hits::processor.cores0.core.data           40                       # number of StoreCondReq hits (Count)
board.cache_hierarchy.l1dcaches0.StoreCondReq.hits::total           40                       # number of StoreCondReq hits (Count)
board.cache_hierarchy.l1dcaches0.StoreCondReq.misses::processor.cores0.core.data           17                       # number of StoreCondReq misses (Count)
board.cache_hierarchy.l1dcaches0.StoreCondReq.misses::total           17                       # number of StoreCondReq misses (Count)
board.cache_hierarchy.l1dcaches0.StoreCondReq.missLatency::processor.cores0.core.data       404980                       # number of StoreCondReq miss ticks (Tick)
board.cache_hierarchy.l1dcaches0.StoreCondReq.missLatency::total       404980                       # number of StoreCondReq miss ticks (Tick)
board.cache_hierarchy.l1dcaches0.StoreCondReq.accesses::processor.cores0.core.data           57                       # number of StoreCondReq accesses(hits+misses) (Count)
board.cache_hierarchy.l1dcaches0.StoreCondReq.accesses::total           57                       # number of StoreCondReq accesses(hits+misses) (Count)
board.cache_hierarchy.l1dcaches0.StoreCondReq.missRate::processor.cores0.core.data     0.298246                       # miss rate for StoreCondReq accesses (Ratio)
board.cache_hierarchy.l1dcaches0.StoreCondReq.missRate::total     0.298246                       # miss rate for StoreCondReq accesses (Ratio)
board.cache_hierarchy.l1dcaches0.StoreCondReq.avgMissLatency::processor.cores0.core.data 23822.352941                       # average StoreCondReq miss latency ((Tick/Count))
board.cache_hierarchy.l1dcaches0.StoreCondReq.avgMissLatency::total 23822.352941                       # average StoreCondReq miss latency ((Tick/Count))
board.cache_hierarchy.l1dcaches0.StoreCondReq.mshrMisses::processor.cores0.core.data           17                       # number of StoreCondReq MSHR misses (Count)
board.cache_hierarchy.l1dcaches0.StoreCondReq.mshrMisses::total           17                       # number of StoreCondReq MSHR misses (Count)
board.cache_hierarchy.l1dcaches0.StoreCondReq.mshrMissLatency::processor.cores0.core.data       371320                       # number of StoreCondReq MSHR miss ticks (Tick)
board.cache_hierarchy.l1dcaches0.StoreCondReq.mshrMissLatency::total       371320                       # number of StoreCondReq MSHR miss ticks (Tick)
board.cache_hierarchy.l1dcaches0.StoreCondReq.mshrMissRate::processor.cores0.core.data     0.298246                       # mshr miss rate for StoreCondReq accesses (Ratio)
board.cache_hierarchy.l1dcaches0.StoreCondReq.mshrMissRate::total     0.298246                       # mshr miss rate for StoreCondReq accesses (Ratio)
board.cache_hierarchy.l1dcaches0.StoreCondReq.avgMshrMissLatency::processor.cores0.core.data 21842.352941                       # average StoreCondReq mshr miss latency ((Tick/Count))
board.cache_hierarchy.l1dcaches0.StoreCondReq.avgMshrMissLatency::total 21842.352941                       # average StoreCondReq mshr miss latency ((Tick/Count))
board.cache_hierarchy.l1dcaches0.SwapReq.hits::processor.cores0.core.data           92                       # number of SwapReq hits (Count)
board.cache_hierarchy.l1dcaches0.SwapReq.hits::total           92                       # number of SwapReq hits (Count)
board.cache_hierarchy.l1dcaches0.SwapReq.misses::processor.cores0.core.data            2                       # number of SwapReq misses (Count)
board.cache_hierarchy.l1dcaches0.SwapReq.misses::total            2                       # number of SwapReq misses (Count)
board.cache_hierarchy.l1dcaches0.SwapReq.missLatency::processor.cores0.core.data        90720                       # number of SwapReq miss ticks (Tick)
board.cache_hierarchy.l1dcaches0.SwapReq.missLatency::total        90720                       # number of SwapReq miss ticks (Tick)
board.cache_hierarchy.l1dcaches0.SwapReq.accesses::processor.cores0.core.data           94                       # number of SwapReq accesses(hits+misses) (Count)
board.cache_hierarchy.l1dcaches0.SwapReq.accesses::total           94                       # number of SwapReq accesses(hits+misses) (Count)
board.cache_hierarchy.l1dcaches0.SwapReq.missRate::processor.cores0.core.data     0.021277                       # miss rate for SwapReq accesses (Ratio)
board.cache_hierarchy.l1dcaches0.SwapReq.missRate::total     0.021277                       # miss rate for SwapReq accesses (Ratio)
board.cache_hierarchy.l1dcaches0.SwapReq.avgMissLatency::processor.cores0.core.data        45360                       # average SwapReq miss latency ((Tick/Count))
board.cache_hierarchy.l1dcaches0.SwapReq.avgMissLatency::total        45360                       # average SwapReq miss latency ((Tick/Count))
board.cache_hierarchy.l1dcaches0.SwapReq.mshrMisses::processor.cores0.core.data            2                       # number of SwapReq MSHR misses (Count)
board.cache_hierarchy.l1dcaches0.SwapReq.mshrMisses::total            2                       # number of SwapReq MSHR misses (Count)
board.cache_hierarchy.l1dcaches0.SwapReq.mshrMissLatency::processor.cores0.core.data        86760                       # number of SwapReq MSHR miss ticks (Tick)
board.cache_hierarchy.l1dcaches0.SwapReq.mshrMissLatency::total        86760                       # number of SwapReq MSHR miss ticks (Tick)
board.cache_hierarchy.l1dcaches0.SwapReq.mshrMissRate::processor.cores0.core.data     0.021277                       # mshr miss rate for SwapReq accesses (Ratio)
board.cache_hierarchy.l1dcaches0.SwapReq.mshrMissRate::total     0.021277                       # mshr miss rate for SwapReq accesses (Ratio)
board.cache_hierarchy.l1dcaches0.SwapReq.avgMshrMissLatency::processor.cores0.core.data        43380                       # average SwapReq mshr miss latency ((Tick/Count))
board.cache_hierarchy.l1dcaches0.SwapReq.avgMshrMissLatency::total        43380                       # average SwapReq mshr miss latency ((Tick/Count))
board.cache_hierarchy.l1dcaches0.WriteReq.hits::processor.cores0.core.data      4907965                       # number of WriteReq hits (Count)
board.cache_hierarchy.l1dcaches0.WriteReq.hits::total      4907965                       # number of WriteReq hits (Count)
board.cache_hierarchy.l1dcaches0.WriteReq.misses::processor.cores0.core.data       412923                       # number of WriteReq misses (Count)
board.cache_hierarchy.l1dcaches0.WriteReq.misses::total       412923                       # number of WriteReq misses (Count)
board.cache_hierarchy.l1dcaches0.WriteReq.missLatency::processor.cores0.core.data  10519027941                       # number of WriteReq miss ticks (Tick)
board.cache_hierarchy.l1dcaches0.WriteReq.missLatency::total  10519027941                       # number of WriteReq miss ticks (Tick)
board.cache_hierarchy.l1dcaches0.WriteReq.accesses::processor.cores0.core.data      5320888                       # number of WriteReq accesses(hits+misses) (Count)
board.cache_hierarchy.l1dcaches0.WriteReq.accesses::total      5320888                       # number of WriteReq accesses(hits+misses) (Count)
board.cache_hierarchy.l1dcaches0.WriteReq.missRate::processor.cores0.core.data     0.077604                       # miss rate for WriteReq accesses (Ratio)
board.cache_hierarchy.l1dcaches0.WriteReq.missRate::total     0.077604                       # miss rate for WriteReq accesses (Ratio)
board.cache_hierarchy.l1dcaches0.WriteReq.avgMissLatency::processor.cores0.core.data 25474.550802                       # average WriteReq miss latency ((Tick/Count))
board.cache_hierarchy.l1dcaches0.WriteReq.avgMissLatency::total 25474.550802                       # average WriteReq miss latency ((Tick/Count))
board.cache_hierarchy.l1dcaches0.WriteReq.mshrHits::processor.cores0.core.data       227451                       # number of WriteReq MSHR hits (Count)
board.cache_hierarchy.l1dcaches0.WriteReq.mshrHits::total       227451                       # number of WriteReq MSHR hits (Count)
board.cache_hierarchy.l1dcaches0.WriteReq.mshrMisses::processor.cores0.core.data       185472                       # number of WriteReq MSHR misses (Count)
board.cache_hierarchy.l1dcaches0.WriteReq.mshrMisses::total       185472                       # number of WriteReq MSHR misses (Count)
board.cache_hierarchy.l1dcaches0.WriteReq.mshrMissLatency::processor.cores0.core.data   4474458510                       # number of WriteReq MSHR miss ticks (Tick)
board.cache_hierarchy.l1dcaches0.WriteReq.mshrMissLatency::total   4474458510                       # number of WriteReq MSHR miss ticks (Tick)
board.cache_hierarchy.l1dcaches0.WriteReq.mshrMissRate::processor.cores0.core.data     0.034857                       # mshr miss rate for WriteReq accesses (Ratio)
board.cache_hierarchy.l1dcaches0.WriteReq.mshrMissRate::total     0.034857                       # mshr miss rate for WriteReq accesses (Ratio)
board.cache_hierarchy.l1dcaches0.WriteReq.avgMshrMissLatency::processor.cores0.core.data 24124.711601                       # average WriteReq mshr miss latency ((Tick/Count))
board.cache_hierarchy.l1dcaches0.WriteReq.avgMshrMissLatency::total 24124.711601                       # average WriteReq mshr miss latency ((Tick/Count))
board.cache_hierarchy.l1dcaches0.power_state.pwrStateResidencyTicks::UNDEFINED 170023877260                       # Cumulative time (in ticks) in various power states (Tick)
board.cache_hierarchy.l1dcaches0.prefetcher.demandMshrMisses      1773688                       # demands not covered by prefetchs (Count)
board.cache_hierarchy.l1dcaches0.prefetcher.pfIssued     15698022                       # number of hwpf issued (Count)
board.cache_hierarchy.l1dcaches0.prefetcher.pfUnused       107217                       # number of HardPF blocks evicted w/o reference (Count)
board.cache_hierarchy.l1dcaches0.prefetcher.pfUseful      5114198                       # number of useful prefetch (Count)
board.cache_hierarchy.l1dcaches0.prefetcher.pfUsefulButMiss        29118                       # number of hit on prefetch but cache block is not in an usable state (Count)
board.cache_hierarchy.l1dcaches0.prefetcher.accuracy     0.325786                       # accuracy of the prefetcher (Count)
board.cache_hierarchy.l1dcaches0.prefetcher.coverage     0.742492                       # coverage brought by this prefetcher (Count)
board.cache_hierarchy.l1dcaches0.prefetcher.pfHitInCache      8024656                       # number of prefetches hitting in cache (Count)
board.cache_hierarchy.l1dcaches0.prefetcher.pfHitInMSHR      2461166                       # number of prefetches hitting in a MSHR (Count)
board.cache_hierarchy.l1dcaches0.prefetcher.pfHitInWB           16                       # number of prefetches hit in the Write Buffer (Count)
board.cache_hierarchy.l1dcaches0.prefetcher.pfLate     10485838                       # number of late prefetches (hitting in cache, MSHR or WB) (Count)
board.cache_hierarchy.l1dcaches0.prefetcher.pfIdentified     36343996                       # number of prefetch candidates identified (Count)
board.cache_hierarchy.l1dcaches0.prefetcher.pfBufferHit     15970418                       # number of redundant prefetches already in prefetch queue (Count)
board.cache_hierarchy.l1dcaches0.prefetcher.pfInCache            0                       # number of redundant prefetches already in cache/mshr dropped (Count)
board.cache_hierarchy.l1dcaches0.prefetcher.pfRemovedDemand        26316                       # number of prefetches dropped due to a demand for the same address (Count)
board.cache_hierarchy.l1dcaches0.prefetcher.pfRemovedFull            0                       # number of prefetches dropped due to prefetch queue size (Count)
board.cache_hierarchy.l1dcaches0.prefetcher.pfSpanPage      1809572                       # number of prefetches that crossed the page (Count)
board.cache_hierarchy.l1dcaches0.prefetcher.pfUsefulSpanPage         3712                       # number of prefetches that is useful and crossed the page (Count)
board.cache_hierarchy.l1dcaches0.prefetcher.power_state.pwrStateResidencyTicks::UNDEFINED 170023877260                       # Cumulative time (in ticks) in various power states (Tick)
board.cache_hierarchy.l1dcaches0.tags.tagsInUse   511.888703                       # Average ticks per tags in use ((Tick/Count))
board.cache_hierarchy.l1dcaches0.tags.totalRefs    114291551                       # Total number of references to valid blocks. (Count)
board.cache_hierarchy.l1dcaches0.tags.sampledRefs      6862985                       # Sample count of references to valid blocks. (Count)
board.cache_hierarchy.l1dcaches0.tags.avgRefs    16.653330                       # Average number of references to valid blocks. ((Count/Count))
board.cache_hierarchy.l1dcaches0.tags.warmupTick       157020                       # The tick when the warmup percentage was hit. (Tick)
board.cache_hierarchy.l1dcaches0.tags.occupancies::cache_hierarchy.l1dcaches0.prefetcher   253.987577                       # Average occupied blocks per tick, per requestor ((Count/Tick))
board.cache_hierarchy.l1dcaches0.tags.occupancies::processor.cores0.core.data   257.901126                       # Average occupied blocks per tick, per requestor ((Count/Tick))
board.cache_hierarchy.l1dcaches0.tags.avgOccs::cache_hierarchy.l1dcaches0.prefetcher     0.496069                       # Average percentage of cache occupancy ((Ratio/Tick))
board.cache_hierarchy.l1dcaches0.tags.avgOccs::processor.cores0.core.data     0.503713                       # Average percentage of cache occupancy ((Ratio/Tick))
board.cache_hierarchy.l1dcaches0.tags.avgOccs::total     0.999783                       # Average percentage of cache occupancy ((Ratio/Tick))
board.cache_hierarchy.l1dcaches0.tags.occupanciesTaskId::1022          171                       # Occupied blocks per task id (Count)
board.cache_hierarchy.l1dcaches0.tags.occupanciesTaskId::1024          341                       # Occupied blocks per task id (Count)
board.cache_hierarchy.l1dcaches0.tags.ageTaskId_1022::0           20                       # Occupied blocks per task id, per block age (Count)
board.cache_hierarchy.l1dcaches0.tags.ageTaskId_1022::1          111                       # Occupied blocks per task id, per block age (Count)
board.cache_hierarchy.l1dcaches0.tags.ageTaskId_1022::2           40                       # Occupied blocks per task id, per block age (Count)
board.cache_hierarchy.l1dcaches0.tags.ageTaskId_1024::0           64                       # Occupied blocks per task id, per block age (Count)
board.cache_hierarchy.l1dcaches0.tags.ageTaskId_1024::1          139                       # Occupied blocks per task id, per block age (Count)
board.cache_hierarchy.l1dcaches0.tags.ageTaskId_1024::2          138                       # Occupied blocks per task id, per block age (Count)
board.cache_hierarchy.l1dcaches0.tags.ratioOccsTaskId::1022     0.333984                       # Ratio of occupied blocks and all blocks, per task id (Ratio)
board.cache_hierarchy.l1dcaches0.tags.ratioOccsTaskId::1024     0.666016                       # Ratio of occupied blocks and all blocks, per task id (Ratio)
board.cache_hierarchy.l1dcaches0.tags.tagAccesses    947706649                       # Number of tag accesses (Count)
board.cache_hierarchy.l1dcaches0.tags.dataAccesses    947706649                       # Number of data accesses (Count)
board.cache_hierarchy.l1dcaches0.tags.power_state.pwrStateResidencyTicks::UNDEFINED 170023877260                       # Cumulative time (in ticks) in various power states (Tick)
board.cache_hierarchy.l1dcaches1.blockedCycles::no_mshrs            0                       # number of cycles access was blocked (Cycle)
board.cache_hierarchy.l1dcaches1.blockedCycles::no_targets            0                       # number of cycles access was blocked (Cycle)
board.cache_hierarchy.l1dcaches1.blockedCauses::no_mshrs            0                       # number of times access was blocked (Count)
board.cache_hierarchy.l1dcaches1.blockedCauses::no_targets            0                       # number of times access was blocked (Count)
board.cache_hierarchy.l1dcaches1.avgBlocked::no_mshrs          nan                       # average number of cycles each access was blocked ((Cycle/Count))
board.cache_hierarchy.l1dcaches1.avgBlocked::no_targets          nan                       # average number of cycles each access was blocked ((Cycle/Count))
board.cache_hierarchy.l1dcaches1.replacements            0                       # number of replacements (Count)
board.cache_hierarchy.l1dcaches1.power_state.pwrStateResidencyTicks::UNDEFINED 170023877260                       # Cumulative time (in ticks) in various power states (Tick)
board.cache_hierarchy.l1dcaches1.prefetcher.demandMshrMisses            0                       # demands not covered by prefetchs (Count)
board.cache_hierarchy.l1dcaches1.prefetcher.pfIssued            0                       # number of hwpf issued (Count)
board.cache_hierarchy.l1dcaches1.prefetcher.pfUseful            0                       # number of useful prefetch (Count)
board.cache_hierarchy.l1dcaches1.prefetcher.pfUsefulButMiss            0                       # number of hit on prefetch but cache block is not in an usable state (Count)
board.cache_hierarchy.l1dcaches1.prefetcher.accuracy          nan                       # accuracy of the prefetcher (Count)
board.cache_hierarchy.l1dcaches1.prefetcher.coverage          nan                       # coverage brought by this prefetcher (Count)
board.cache_hierarchy.l1dcaches1.prefetcher.pfHitInCache            0                       # number of prefetches hitting in cache (Count)
board.cache_hierarchy.l1dcaches1.prefetcher.pfHitInMSHR            0                       # number of prefetches hitting in a MSHR (Count)
board.cache_hierarchy.l1dcaches1.prefetcher.pfHitInWB            0                       # number of prefetches hit in the Write Buffer (Count)
board.cache_hierarchy.l1dcaches1.prefetcher.pfLate            0                       # number of late prefetches (hitting in cache, MSHR or WB) (Count)
board.cache_hierarchy.l1dcaches1.prefetcher.pfIdentified            0                       # number of prefetch candidates identified (Count)
board.cache_hierarchy.l1dcaches1.prefetcher.pfBufferHit            0                       # number of redundant prefetches already in prefetch queue (Count)
board.cache_hierarchy.l1dcaches1.prefetcher.pfInCache            0                       # number of redundant prefetches already in cache/mshr dropped (Count)
board.cache_hierarchy.l1dcaches1.prefetcher.pfRemovedDemand            0                       # number of prefetches dropped due to a demand for the same address (Count)
board.cache_hierarchy.l1dcaches1.prefetcher.pfRemovedFull            0                       # number of prefetches dropped due to prefetch queue size (Count)
board.cache_hierarchy.l1dcaches1.prefetcher.pfSpanPage            0                       # number of prefetches that crossed the page (Count)
board.cache_hierarchy.l1dcaches1.prefetcher.pfUsefulSpanPage            0                       # number of prefetches that is useful and crossed the page (Count)
board.cache_hierarchy.l1dcaches1.prefetcher.power_state.pwrStateResidencyTicks::UNDEFINED 170023877260                       # Cumulative time (in ticks) in various power states (Tick)
board.cache_hierarchy.l1dcaches1.tags.tagsInUse            0                       # Average ticks per tags in use ((Tick/Count))
board.cache_hierarchy.l1dcaches1.tags.totalRefs            0                       # Total number of references to valid blocks. (Count)
board.cache_hierarchy.l1dcaches1.tags.sampledRefs            0                       # Sample count of references to valid blocks. (Count)
board.cache_hierarchy.l1dcaches1.tags.avgRefs          nan                       # Average number of references to valid blocks. ((Count/Count))
board.cache_hierarchy.l1dcaches1.tags.warmupTick            0                       # The tick when the warmup percentage was hit. (Tick)
board.cache_hierarchy.l1dcaches1.tags.tagAccesses            0                       # Number of tag accesses (Count)
board.cache_hierarchy.l1dcaches1.tags.dataAccesses            0                       # Number of data accesses (Count)
board.cache_hierarchy.l1dcaches1.tags.power_state.pwrStateResidencyTicks::UNDEFINED 170023877260                       # Cumulative time (in ticks) in various power states (Tick)
board.cache_hierarchy.l1icaches0.demandHits::processor.cores0.core.inst      8456910                       # number of demand (read+write) hits (Count)
board.cache_hierarchy.l1icaches0.demandHits::total      8456910                       # number of demand (read+write) hits (Count)
board.cache_hierarchy.l1icaches0.overallHits::processor.cores0.core.inst      8456910                       # number of overall hits (Count)
board.cache_hierarchy.l1icaches0.overallHits::total      8456910                       # number of overall hits (Count)
board.cache_hierarchy.l1icaches0.demandMisses::processor.cores0.core.inst         6144                       # number of demand (read+write) misses (Count)
board.cache_hierarchy.l1icaches0.demandMisses::total         6144                       # number of demand (read+write) misses (Count)
board.cache_hierarchy.l1icaches0.overallMisses::processor.cores0.core.inst         6144                       # number of overall misses (Count)
board.cache_hierarchy.l1icaches0.overallMisses::total         6144                       # number of overall misses (Count)
board.cache_hierarchy.l1icaches0.demandMissLatency::processor.cores0.core.inst    229635800                       # number of demand (read+write) miss ticks (Tick)
board.cache_hierarchy.l1icaches0.demandMissLatency::total    229635800                       # number of demand (read+write) miss ticks (Tick)
board.cache_hierarchy.l1icaches0.overallMissLatency::processor.cores0.core.inst    229635800                       # number of overall miss ticks (Tick)
board.cache_hierarchy.l1icaches0.overallMissLatency::total    229635800                       # number of overall miss ticks (Tick)
board.cache_hierarchy.l1icaches0.demandAccesses::processor.cores0.core.inst      8463054                       # number of demand (read+write) accesses (Count)
board.cache_hierarchy.l1icaches0.demandAccesses::total      8463054                       # number of demand (read+write) accesses (Count)
board.cache_hierarchy.l1icaches0.overallAccesses::processor.cores0.core.inst      8463054                       # number of overall (read+write) accesses (Count)
board.cache_hierarchy.l1icaches0.overallAccesses::total      8463054                       # number of overall (read+write) accesses (Count)
board.cache_hierarchy.l1icaches0.demandMissRate::processor.cores0.core.inst     0.000726                       # miss rate for demand accesses (Ratio)
board.cache_hierarchy.l1icaches0.demandMissRate::total     0.000726                       # miss rate for demand accesses (Ratio)
board.cache_hierarchy.l1icaches0.overallMissRate::processor.cores0.core.inst     0.000726                       # miss rate for overall accesses (Ratio)
board.cache_hierarchy.l1icaches0.overallMissRate::total     0.000726                       # miss rate for overall accesses (Ratio)
board.cache_hierarchy.l1icaches0.demandAvgMissLatency::processor.cores0.core.inst 37375.618490                       # average overall miss latency in ticks ((Tick/Count))
board.cache_hierarchy.l1icaches0.demandAvgMissLatency::total 37375.618490                       # average overall miss latency in ticks ((Tick/Count))
board.cache_hierarchy.l1icaches0.overallAvgMissLatency::processor.cores0.core.inst 37375.618490                       # average overall miss latency ((Tick/Count))
board.cache_hierarchy.l1icaches0.overallAvgMissLatency::total 37375.618490                       # average overall miss latency ((Tick/Count))
board.cache_hierarchy.l1icaches0.blockedCycles::no_mshrs            0                       # number of cycles access was blocked (Cycle)
board.cache_hierarchy.l1icaches0.blockedCycles::no_targets           27                       # number of cycles access was blocked (Cycle)
board.cache_hierarchy.l1icaches0.blockedCauses::no_mshrs            0                       # number of times access was blocked (Count)
board.cache_hierarchy.l1icaches0.blockedCauses::no_targets            1                       # number of times access was blocked (Count)
board.cache_hierarchy.l1icaches0.avgBlocked::no_mshrs          nan                       # average number of cycles each access was blocked ((Cycle/Count))
board.cache_hierarchy.l1icaches0.avgBlocked::no_targets           27                       # average number of cycles each access was blocked ((Cycle/Count))
board.cache_hierarchy.l1icaches0.demandMshrHits::processor.cores0.core.inst          782                       # number of demand (read+write) MSHR hits (Count)
board.cache_hierarchy.l1icaches0.demandMshrHits::total          782                       # number of demand (read+write) MSHR hits (Count)
board.cache_hierarchy.l1icaches0.overallMshrHits::processor.cores0.core.inst          782                       # number of overall MSHR hits (Count)
board.cache_hierarchy.l1icaches0.overallMshrHits::total          782                       # number of overall MSHR hits (Count)
board.cache_hierarchy.l1icaches0.demandMshrMisses::processor.cores0.core.inst         5362                       # number of demand (read+write) MSHR misses (Count)
board.cache_hierarchy.l1icaches0.demandMshrMisses::total         5362                       # number of demand (read+write) MSHR misses (Count)
board.cache_hierarchy.l1icaches0.overallMshrMisses::processor.cores0.core.inst         5362                       # number of overall MSHR misses (Count)
board.cache_hierarchy.l1icaches0.overallMshrMisses::total         5362                       # number of overall MSHR misses (Count)
board.cache_hierarchy.l1icaches0.demandMshrMissLatency::processor.cores0.core.inst    196843940                       # number of demand (read+write) MSHR miss ticks (Tick)
board.cache_hierarchy.l1icaches0.demandMshrMissLatency::total    196843940                       # number of demand (read+write) MSHR miss ticks (Tick)
board.cache_hierarchy.l1icaches0.overallMshrMissLatency::processor.cores0.core.inst    196843940                       # number of overall MSHR miss ticks (Tick)
board.cache_hierarchy.l1icaches0.overallMshrMissLatency::total    196843940                       # number of overall MSHR miss ticks (Tick)
board.cache_hierarchy.l1icaches0.demandMshrMissRate::processor.cores0.core.inst     0.000634                       # mshr miss ratio for demand accesses (Ratio)
board.cache_hierarchy.l1icaches0.demandMshrMissRate::total     0.000634                       # mshr miss ratio for demand accesses (Ratio)
board.cache_hierarchy.l1icaches0.overallMshrMissRate::processor.cores0.core.inst     0.000634                       # mshr miss ratio for overall accesses (Ratio)
board.cache_hierarchy.l1icaches0.overallMshrMissRate::total     0.000634                       # mshr miss ratio for overall accesses (Ratio)
board.cache_hierarchy.l1icaches0.demandAvgMshrMissLatency::processor.cores0.core.inst 36710.917568                       # average overall mshr miss latency ((Tick/Count))
board.cache_hierarchy.l1icaches0.demandAvgMshrMissLatency::total 36710.917568                       # average overall mshr miss latency ((Tick/Count))
board.cache_hierarchy.l1icaches0.overallAvgMshrMissLatency::processor.cores0.core.inst 36710.917568                       # average overall mshr miss latency ((Tick/Count))
board.cache_hierarchy.l1icaches0.overallAvgMshrMissLatency::total 36710.917568                       # average overall mshr miss latency ((Tick/Count))
board.cache_hierarchy.l1icaches0.replacements         4849                       # number of replacements (Count)
board.cache_hierarchy.l1icaches0.ReadReq.hits::processor.cores0.core.inst      8456910                       # number of ReadReq hits (Count)
board.cache_hierarchy.l1icaches0.ReadReq.hits::total      8456910                       # number of ReadReq hits (Count)
board.cache_hierarchy.l1icaches0.ReadReq.misses::processor.cores0.core.inst         6144                       # number of ReadReq misses (Count)
board.cache_hierarchy.l1icaches0.ReadReq.misses::total         6144                       # number of ReadReq misses (Count)
board.cache_hierarchy.l1icaches0.ReadReq.missLatency::processor.cores0.core.inst    229635800                       # number of ReadReq miss ticks (Tick)
board.cache_hierarchy.l1icaches0.ReadReq.missLatency::total    229635800                       # number of ReadReq miss ticks (Tick)
board.cache_hierarchy.l1icaches0.ReadReq.accesses::processor.cores0.core.inst      8463054                       # number of ReadReq accesses(hits+misses) (Count)
board.cache_hierarchy.l1icaches0.ReadReq.accesses::total      8463054                       # number of ReadReq accesses(hits+misses) (Count)
board.cache_hierarchy.l1icaches0.ReadReq.missRate::processor.cores0.core.inst     0.000726                       # miss rate for ReadReq accesses (Ratio)
board.cache_hierarchy.l1icaches0.ReadReq.missRate::total     0.000726                       # miss rate for ReadReq accesses (Ratio)
board.cache_hierarchy.l1icaches0.ReadReq.avgMissLatency::processor.cores0.core.inst 37375.618490                       # average ReadReq miss latency ((Tick/Count))
board.cache_hierarchy.l1icaches0.ReadReq.avgMissLatency::total 37375.618490                       # average ReadReq miss latency ((Tick/Count))
board.cache_hierarchy.l1icaches0.ReadReq.mshrHits::processor.cores0.core.inst          782                       # number of ReadReq MSHR hits (Count)
board.cache_hierarchy.l1icaches0.ReadReq.mshrHits::total          782                       # number of ReadReq MSHR hits (Count)
board.cache_hierarchy.l1icaches0.ReadReq.mshrMisses::processor.cores0.core.inst         5362                       # number of ReadReq MSHR misses (Count)
board.cache_hierarchy.l1icaches0.ReadReq.mshrMisses::total         5362                       # number of ReadReq MSHR misses (Count)
board.cache_hierarchy.l1icaches0.ReadReq.mshrMissLatency::processor.cores0.core.inst    196843940                       # number of ReadReq MSHR miss ticks (Tick)
board.cache_hierarchy.l1icaches0.ReadReq.mshrMissLatency::total    196843940                       # number of ReadReq MSHR miss ticks (Tick)
board.cache_hierarchy.l1icaches0.ReadReq.mshrMissRate::processor.cores0.core.inst     0.000634                       # mshr miss rate for ReadReq accesses (Ratio)
board.cache_hierarchy.l1icaches0.ReadReq.mshrMissRate::total     0.000634                       # mshr miss rate for ReadReq accesses (Ratio)
board.cache_hierarchy.l1icaches0.ReadReq.avgMshrMissLatency::processor.cores0.core.inst 36710.917568                       # average ReadReq mshr miss latency ((Tick/Count))
board.cache_hierarchy.l1icaches0.ReadReq.avgMshrMissLatency::total 36710.917568                       # average ReadReq mshr miss latency ((Tick/Count))
board.cache_hierarchy.l1icaches0.clk_domain.clock         1000                       # Clock period in ticks (Tick)
board.cache_hierarchy.l1icaches0.clk_domain.voltage_domain.voltage            1                       # Voltage in Volts (Volt)
board.cache_hierarchy.l1icaches0.power_state.pwrStateResidencyTicks::UNDEFINED 170023877260                       # Cumulative time (in ticks) in various power states (Tick)
board.cache_hierarchy.l1icaches0.prefetcher.demandMshrMisses         5362                       # demands not covered by prefetchs (Count)
board.cache_hierarchy.l1icaches0.prefetcher.pfIssued            0                       # number of hwpf issued (Count)
board.cache_hierarchy.l1icaches0.prefetcher.pfUseful            0                       # number of useful prefetch (Count)
board.cache_hierarchy.l1icaches0.prefetcher.pfUsefulButMiss            0                       # number of hit on prefetch but cache block is not in an usable state (Count)
board.cache_hierarchy.l1icaches0.prefetcher.accuracy          nan                       # accuracy of the prefetcher (Count)
board.cache_hierarchy.l1icaches0.prefetcher.coverage            0                       # coverage brought by this prefetcher (Count)
board.cache_hierarchy.l1icaches0.prefetcher.pfHitInCache            0                       # number of prefetches hitting in cache (Count)
board.cache_hierarchy.l1icaches0.prefetcher.pfHitInMSHR            0                       # number of prefetches hitting in a MSHR (Count)
board.cache_hierarchy.l1icaches0.prefetcher.pfHitInWB            0                       # number of prefetches hit in the Write Buffer (Count)
board.cache_hierarchy.l1icaches0.prefetcher.pfLate            0                       # number of late prefetches (hitting in cache, MSHR or WB) (Count)
board.cache_hierarchy.l1icaches0.prefetcher.pfIdentified            0                       # number of prefetch candidates identified (Count)
board.cache_hierarchy.l1icaches0.prefetcher.pfBufferHit            0                       # number of redundant prefetches already in prefetch queue (Count)
board.cache_hierarchy.l1icaches0.prefetcher.pfInCache            0                       # number of redundant prefetches already in cache/mshr dropped (Count)
board.cache_hierarchy.l1icaches0.prefetcher.pfRemovedDemand            0                       # number of prefetches dropped due to a demand for the same address (Count)
board.cache_hierarchy.l1icaches0.prefetcher.pfRemovedFull            0                       # number of prefetches dropped due to prefetch queue size (Count)
board.cache_hierarchy.l1icaches0.prefetcher.pfSpanPage            0                       # number of prefetches that crossed the page (Count)
board.cache_hierarchy.l1icaches0.prefetcher.pfUsefulSpanPage            0                       # number of prefetches that is useful and crossed the page (Count)
board.cache_hierarchy.l1icaches0.prefetcher.power_state.pwrStateResidencyTicks::UNDEFINED 170023877260                       # Cumulative time (in ticks) in various power states (Tick)
board.cache_hierarchy.l1icaches0.tags.tagsInUse   506.659535                       # Average ticks per tags in use ((Tick/Count))
board.cache_hierarchy.l1icaches0.tags.totalRefs      8462271                       # Total number of references to valid blocks. (Count)
board.cache_hierarchy.l1icaches0.tags.sampledRefs         5361                       # Sample count of references to valid blocks. (Count)
board.cache_hierarchy.l1icaches0.tags.avgRefs  1578.487409                       # Average number of references to valid blocks. ((Count/Count))
board.cache_hierarchy.l1icaches0.tags.warmupTick        77020                       # The tick when the warmup percentage was hit. (Tick)
board.cache_hierarchy.l1icaches0.tags.occupancies::processor.cores0.core.inst   506.659535                       # Average occupied blocks per tick, per requestor ((Count/Tick))
board.cache_hierarchy.l1icaches0.tags.avgOccs::processor.cores0.core.inst     0.989569                       # Average percentage of cache occupancy ((Ratio/Tick))
board.cache_hierarchy.l1icaches0.tags.avgOccs::total     0.989569                       # Average percentage of cache occupancy ((Ratio/Tick))
board.cache_hierarchy.l1icaches0.tags.occupanciesTaskId::1024          512                       # Occupied blocks per task id (Count)
board.cache_hierarchy.l1icaches0.tags.ageTaskId_1024::0           34                       # Occupied blocks per task id, per block age (Count)
board.cache_hierarchy.l1icaches0.tags.ageTaskId_1024::1           61                       # Occupied blocks per task id, per block age (Count)
board.cache_hierarchy.l1icaches0.tags.ageTaskId_1024::2          232                       # Occupied blocks per task id, per block age (Count)
board.cache_hierarchy.l1icaches0.tags.ageTaskId_1024::3            3                       # Occupied blocks per task id, per block age (Count)
board.cache_hierarchy.l1icaches0.tags.ageTaskId_1024::4          182                       # Occupied blocks per task id, per block age (Count)
board.cache_hierarchy.l1icaches0.tags.ratioOccsTaskId::1024            1                       # Ratio of occupied blocks and all blocks, per task id (Ratio)
board.cache_hierarchy.l1icaches0.tags.tagAccesses     67709793                       # Number of tag accesses (Count)
board.cache_hierarchy.l1icaches0.tags.dataAccesses     67709793                       # Number of data accesses (Count)
board.cache_hierarchy.l1icaches0.tags.power_state.pwrStateResidencyTicks::UNDEFINED 170023877260                       # Cumulative time (in ticks) in various power states (Tick)
board.cache_hierarchy.l1icaches1.blockedCycles::no_mshrs            0                       # number of cycles access was blocked (Cycle)
board.cache_hierarchy.l1icaches1.blockedCycles::no_targets            0                       # number of cycles access was blocked (Cycle)
board.cache_hierarchy.l1icaches1.blockedCauses::no_mshrs            0                       # number of times access was blocked (Count)
board.cache_hierarchy.l1icaches1.blockedCauses::no_targets            0                       # number of times access was blocked (Count)
board.cache_hierarchy.l1icaches1.avgBlocked::no_mshrs          nan                       # average number of cycles each access was blocked ((Cycle/Count))
board.cache_hierarchy.l1icaches1.avgBlocked::no_targets          nan                       # average number of cycles each access was blocked ((Cycle/Count))
board.cache_hierarchy.l1icaches1.replacements            0                       # number of replacements (Count)
board.cache_hierarchy.l1icaches1.power_state.pwrStateResidencyTicks::UNDEFINED 170023877260                       # Cumulative time (in ticks) in various power states (Tick)
board.cache_hierarchy.l1icaches1.prefetcher.demandMshrMisses            0                       # demands not covered by prefetchs (Count)
board.cache_hierarchy.l1icaches1.prefetcher.pfIssued            0                       # number of hwpf issued (Count)
board.cache_hierarchy.l1icaches1.prefetcher.pfUseful            0                       # number of useful prefetch (Count)
board.cache_hierarchy.l1icaches1.prefetcher.pfUsefulButMiss            0                       # number of hit on prefetch but cache block is not in an usable state (Count)
board.cache_hierarchy.l1icaches1.prefetcher.accuracy          nan                       # accuracy of the prefetcher (Count)
board.cache_hierarchy.l1icaches1.prefetcher.coverage          nan                       # coverage brought by this prefetcher (Count)
board.cache_hierarchy.l1icaches1.prefetcher.pfHitInCache            0                       # number of prefetches hitting in cache (Count)
board.cache_hierarchy.l1icaches1.prefetcher.pfHitInMSHR            0                       # number of prefetches hitting in a MSHR (Count)
board.cache_hierarchy.l1icaches1.prefetcher.pfHitInWB            0                       # number of prefetches hit in the Write Buffer (Count)
board.cache_hierarchy.l1icaches1.prefetcher.pfLate            0                       # number of late prefetches (hitting in cache, MSHR or WB) (Count)
board.cache_hierarchy.l1icaches1.prefetcher.pfIdentified            0                       # number of prefetch candidates identified (Count)
board.cache_hierarchy.l1icaches1.prefetcher.pfBufferHit            0                       # number of redundant prefetches already in prefetch queue (Count)
board.cache_hierarchy.l1icaches1.prefetcher.pfInCache            0                       # number of redundant prefetches already in cache/mshr dropped (Count)
board.cache_hierarchy.l1icaches1.prefetcher.pfRemovedDemand            0                       # number of prefetches dropped due to a demand for the same address (Count)
board.cache_hierarchy.l1icaches1.prefetcher.pfRemovedFull            0                       # number of prefetches dropped due to prefetch queue size (Count)
board.cache_hierarchy.l1icaches1.prefetcher.pfSpanPage            0                       # number of prefetches that crossed the page (Count)
board.cache_hierarchy.l1icaches1.prefetcher.pfUsefulSpanPage            0                       # number of prefetches that is useful and crossed the page (Count)
board.cache_hierarchy.l1icaches1.prefetcher.power_state.pwrStateResidencyTicks::UNDEFINED 170023877260                       # Cumulative time (in ticks) in various power states (Tick)
board.cache_hierarchy.l1icaches1.tags.tagsInUse            0                       # Average ticks per tags in use ((Tick/Count))
board.cache_hierarchy.l1icaches1.tags.totalRefs            0                       # Total number of references to valid blocks. (Count)
board.cache_hierarchy.l1icaches1.tags.sampledRefs            0                       # Sample count of references to valid blocks. (Count)
board.cache_hierarchy.l1icaches1.tags.avgRefs          nan                       # Average number of references to valid blocks. ((Count/Count))
board.cache_hierarchy.l1icaches1.tags.warmupTick            0                       # The tick when the warmup percentage was hit. (Tick)
board.cache_hierarchy.l1icaches1.tags.tagAccesses            0                       # Number of tag accesses (Count)
board.cache_hierarchy.l1icaches1.tags.dataAccesses            0                       # Number of data accesses (Count)
board.cache_hierarchy.l1icaches1.tags.power_state.pwrStateResidencyTicks::UNDEFINED 170023877260                       # Cumulative time (in ticks) in various power states (Tick)
board.cache_hierarchy.l2buses0.transDist::ReadResp      6805709                       # Transaction distribution (Count)
board.cache_hierarchy.l2buses0.transDist::WritebackDirty      7088561                       # Transaction distribution (Count)
board.cache_hierarchy.l2buses0.transDist::CleanEvict      6323503                       # Transaction distribution (Count)
board.cache_hierarchy.l2buses0.transDist::HardPFReq       146049                       # Transaction distribution (Count)
board.cache_hierarchy.l2buses0.transDist::UpgradeReq       122620                       # Transaction distribution (Count)
board.cache_hierarchy.l2buses0.transDist::SCUpgradeReq           17                       # Transaction distribution (Count)
board.cache_hierarchy.l2buses0.transDist::UpgradeResp       122637                       # Transaction distribution (Count)
board.cache_hierarchy.l2buses0.transDist::ReadExReq        61384                       # Transaction distribution (Count)
board.cache_hierarchy.l2buses0.transDist::ReadExResp        61384                       # Transaction distribution (Count)
board.cache_hierarchy.l2buses0.transDist::ReadSharedReq      6805709                       # Transaction distribution (Count)
board.cache_hierarchy.l2buses0.transDist::InvalidateReq         1559                       # Transaction distribution (Count)
board.cache_hierarchy.l2buses0.transDist::InvalidateResp         1559                       # Transaction distribution (Count)
board.cache_hierarchy.l2buses0.pktCount_board.cache_hierarchy.l1icaches0.mem_side_port::board.cache_hierarchy.l2caches0.cpu_side_port        15570                       # Packet count per connected requestor and responder (Count)
board.cache_hierarchy.l2buses0.pktCount_board.cache_hierarchy.l1dcaches0.mem_side_port::board.cache_hierarchy.l2caches0.cpu_side_port     20834329                       # Packet count per connected requestor and responder (Count)
board.cache_hierarchy.l2buses0.pktCount::total     20849899                       # Packet count per connected requestor and responder (Count)
board.cache_hierarchy.l2buses0.pktSize_board.cache_hierarchy.l1icaches0.mem_side_port::board.cache_hierarchy.l2caches0.cpu_side_port       343104                       # Cumulative packet size per connected requestor and responder (Byte)
board.cache_hierarchy.l2buses0.pktSize_board.cache_hierarchy.l1dcaches0.mem_side_port::board.cache_hierarchy.l2caches0.cpu_side_port    478949440                       # Cumulative packet size per connected requestor and responder (Byte)
board.cache_hierarchy.l2buses0.pktSize::total    479292544                       # Cumulative packet size per connected requestor and responder (Byte)
board.cache_hierarchy.l2buses0.snoops         6690792                       # Total snoops (Count)
board.cache_hierarchy.l2buses0.snoopTraffic    413869312                       # Total snoop traffic (Byte)
board.cache_hierarchy.l2buses0.snoopFanout::samples     13682529                       # Request fanout histogram (Count)
board.cache_hierarchy.l2buses0.snoopFanout::mean     0.005500                       # Request fanout histogram (Count)
board.cache_hierarchy.l2buses0.snoopFanout::stdev     0.073960                       # Request fanout histogram (Count)
board.cache_hierarchy.l2buses0.snoopFanout::underflows            0      0.00%      0.00% # Request fanout histogram (Count)
board.cache_hierarchy.l2buses0.snoopFanout::0     13607271     99.45%     99.45% # Request fanout histogram (Count)
board.cache_hierarchy.l2buses0.snoopFanout::1        75258      0.55%    100.00% # Request fanout histogram (Count)
board.cache_hierarchy.l2buses0.snoopFanout::2            0      0.00%    100.00% # Request fanout histogram (Count)
board.cache_hierarchy.l2buses0.snoopFanout::3            0      0.00%    100.00% # Request fanout histogram (Count)
board.cache_hierarchy.l2buses0.snoopFanout::4            0      0.00%    100.00% # Request fanout histogram (Count)
board.cache_hierarchy.l2buses0.snoopFanout::overflows            0      0.00%    100.00% # Request fanout histogram (Count)
board.cache_hierarchy.l2buses0.snoopFanout::min_value            0                       # Request fanout histogram (Count)
board.cache_hierarchy.l2buses0.snoopFanout::max_value            1                       # Request fanout histogram (Count)
board.cache_hierarchy.l2buses0.snoopFanout::total     13682529                       # Request fanout histogram (Count)
board.cache_hierarchy.l2buses0.power_state.pwrStateResidencyTicks::UNDEFINED 170023877260                       # Cumulative time (in ticks) in various power states (Tick)
board.cache_hierarchy.l2buses0.reqLayer0.occupancy    312645094                       # Layer occupancy (ticks) (Tick)
board.cache_hierarchy.l2buses0.reqLayer0.utilization          0.0                       # Layer utilization (Ratio)
board.cache_hierarchy.l2buses0.respLayer0.occupancy       322002                       # Layer occupancy (ticks) (Tick)
board.cache_hierarchy.l2buses0.respLayer0.utilization          0.0                       # Layer utilization (Ratio)
board.cache_hierarchy.l2buses0.respLayer1.occupancy    414188201                       # Layer occupancy (ticks) (Tick)
board.cache_hierarchy.l2buses0.respLayer1.utilization          0.0                       # Layer utilization (Ratio)
board.cache_hierarchy.l2buses0.snoop_filter.totRequests     13869391                       # Total number of requests made to the snoop filter. (Count)
board.cache_hierarchy.l2buses0.snoop_filter.hitSingleRequests      7000599                       # Number of requests hitting in the snoop filter with a single holder of the requested data. (Count)
board.cache_hierarchy.l2buses0.snoop_filter.hitMultiRequests            0                       # Number of requests hitting in the snoop filter with multiple (>1) holders of the requested data. (Count)
board.cache_hierarchy.l2buses0.snoop_filter.totSnoops        75258                       # Total number of snoops made to the snoop filter. (Count)
board.cache_hierarchy.l2buses0.snoop_filter.hitSingleSnoops        75258                       # Number of snoops hitting in the snoop filter with a single holder of the requested data. (Count)
board.cache_hierarchy.l2buses0.snoop_filter.hitMultiSnoops            0                       # Number of snoops hitting in the snoop filter with multiple (>1) holders of the requested data. (Count)
board.cache_hierarchy.l2buses1.snoops               0                       # Total snoops (Count)
board.cache_hierarchy.l2buses1.snoopTraffic            0                       # Total snoop traffic (Byte)
board.cache_hierarchy.l2buses1.snoopFanout::samples            0                       # Request fanout histogram (Count)
board.cache_hierarchy.l2buses1.snoopFanout::mean          nan                       # Request fanout histogram (Count)
board.cache_hierarchy.l2buses1.snoopFanout::stdev          nan                       # Request fanout histogram (Count)
board.cache_hierarchy.l2buses1.snoopFanout::underflows            0                       # Request fanout histogram (Count)
board.cache_hierarchy.l2buses1.snoopFanout::0            0                       # Request fanout histogram (Count)
board.cache_hierarchy.l2buses1.snoopFanout::1            0                       # Request fanout histogram (Count)
board.cache_hierarchy.l2buses1.snoopFanout::2            0                       # Request fanout histogram (Count)
board.cache_hierarchy.l2buses1.snoopFanout::3            0                       # Request fanout histogram (Count)
board.cache_hierarchy.l2buses1.snoopFanout::4            0                       # Request fanout histogram (Count)
board.cache_hierarchy.l2buses1.snoopFanout::overflows            0                       # Request fanout histogram (Count)
board.cache_hierarchy.l2buses1.snoopFanout::min_value            0                       # Request fanout histogram (Count)
board.cache_hierarchy.l2buses1.snoopFanout::max_value            0                       # Request fanout histogram (Count)
board.cache_hierarchy.l2buses1.snoopFanout::total            0                       # Request fanout histogram (Count)
board.cache_hierarchy.l2buses1.power_state.pwrStateResidencyTicks::UNDEFINED 170023877260                       # Cumulative time (in ticks) in various power states (Tick)
board.cache_hierarchy.l2buses1.snoop_filter.totRequests            0                       # Total number of requests made to the snoop filter. (Count)
board.cache_hierarchy.l2buses1.snoop_filter.hitSingleRequests            0                       # Number of requests hitting in the snoop filter with a single holder of the requested data. (Count)
board.cache_hierarchy.l2buses1.snoop_filter.hitMultiRequests            0                       # Number of requests hitting in the snoop filter with multiple (>1) holders of the requested data. (Count)
board.cache_hierarchy.l2buses1.snoop_filter.totSnoops            0                       # Total number of snoops made to the snoop filter. (Count)
board.cache_hierarchy.l2buses1.snoop_filter.hitSingleSnoops            0                       # Number of snoops hitting in the snoop filter with a single holder of the requested data. (Count)
board.cache_hierarchy.l2buses1.snoop_filter.hitMultiSnoops            0                       # Number of snoops hitting in the snoop filter with multiple (>1) holders of the requested data. (Count)
board.cache_hierarchy.l2caches0.demandHits::cache_hierarchy.l1dcaches0.prefetcher       164885                       # number of demand (read+write) hits (Count)
board.cache_hierarchy.l2caches0.demandHits::processor.cores0.core.inst         1131                       # number of demand (read+write) hits (Count)
board.cache_hierarchy.l2caches0.demandHits::processor.cores0.core.data       303636                       # number of demand (read+write) hits (Count)
board.cache_hierarchy.l2caches0.demandHits::total       469652                       # number of demand (read+write) hits (Count)
board.cache_hierarchy.l2caches0.overallHits::cache_hierarchy.l1dcaches0.prefetcher       164885                       # number of overall hits (Count)
board.cache_hierarchy.l2caches0.overallHits::processor.cores0.core.inst         1131                       # number of overall hits (Count)
board.cache_hierarchy.l2caches0.overallHits::processor.cores0.core.data       303636                       # number of overall hits (Count)
board.cache_hierarchy.l2caches0.overallHits::total       469652                       # number of overall hits (Count)
[...]
board.processor.cores1.core.commitStats0.committedInstType::SimdFloatAdd            0                       # Class of committed instruction. (Count)
board.processor.cores1.core.commitStats0.committedInstType::SimdFloatAlu            0                       # Class of committed instruction. (Count)
board.processor.cores1.core.commitStats0.committedInstType::SimdFloatCmp            0                       # Class of committed instruction. (Count)
board.processor.cores1.core.commitStats0.committedInstType::SimdFloatCvt            0                       # Class of committed instruction. (Count)
board.processor.cores1.core.commitStats0.committedInstType::SimdFloatDiv            0                       # Class of committed instruction. (Count)
board.processor.cores1.core.commitStats0.committedInstType::SimdFloatMisc            0                       # Class of committed instruction. (Count)
board.processor.cores1.core.commitStats0.committedInstType::SimdFloatMult            0                       # Class of committed instruction. (Count)
board.processor.cores1.core.commitStats0.committedInstType::SimdFloatMultAcc            0                       # Class of committed instruction. (Count)
board.processor.cores1.core.commitStats0.committedInstType::SimdFloatMatMultAcc            0                       # Class of committed instruction. (Count)
board.processor.cores1.core.commitStats0.committedInstType::SimdFloatSqrt            0                       # Class of committed instruction. (Count)
board.processor.cores1.core.commitStats0.committedInstType::SimdReduceAdd            0                       # Class of committed instruction. (Count)
board.processor.cores1.core.commitStats0.committedInstType::SimdReduceAlu            0                       # Class of committed instruction. (Count)
board.processor.cores1.core.commitStats0.committedInstType::SimdReduceCmp            0                       # Class of committed instruction. (Count)
board.processor.cores1.core.commitStats0.committedInstType::SimdFloatReduceAdd            0                       # Class of committed instruction. (Count)
board.processor.cores1.core.commitStats0.committedInstType::SimdFloatReduceCmp            0                       # Class of committed instruction. (Count)
board.processor.cores1.core.commitStats0.committedInstType::SimdAes            0                       # Class of committed instruction. (Count)
board.processor.cores1.core.commitStats0.committedInstType::SimdAesMix            0                       # Class of committed instruction. (Count)
board.processor.cores1.core.commitStats0.committedInstType::SimdSha1Hash            0                       # Class of committed instruction. (Count)
board.processor.cores1.core.commitStats0.committedInstType::SimdSha1Hash2            0                       # Class of committed instruction. (Count)
board.processor.cores1.core.commitStats0.committedInstType::SimdSha256Hash            0                       # Class of committed instruction. (Count)
board.processor.cores1.core.commitStats0.committedInstType::SimdSha256Hash2            0                       # Class of committed instruction. (Count)
board.processor.cores1.core.commitStats0.committedInstType::SimdShaSigma2            0                       # Class of committed instruction. (Count)
board.processor.cores1.core.commitStats0.committedInstType::SimdShaSigma3            0                       # Class of committed instruction. (Count)
board.processor.cores1.core.commitStats0.committedInstType::SimdPredAlu            0                       # Class of committed instruction. (Count)
board.processor.cores1.core.commitStats0.committedInstType::Matrix            0                       # Class of committed instruction. (Count)
board.processor.cores1.core.commitStats0.committedInstType::MatrixMov            0                       # Class of committed instruction. (Count)
board.processor.cores1.core.commitStats0.committedInstType::MatrixOP            0                       # Class of committed instruction. (Count)
board.processor.cores1.core.commitStats0.committedInstType::MemRead            0                       # Class of committed instruction. (Count)
board.processor.cores1.core.commitStats0.committedInstType::MemWrite            0                       # Class of committed instruction. (Count)
board.processor.cores1.core.commitStats0.committedInstType::FloatMemRead            0                       # Class of committed instruction. (Count)
board.processor.cores1.core.commitStats0.committedInstType::FloatMemWrite            0                       # Class of committed instruction. (Count)
board.processor.cores1.core.commitStats0.committedInstType::IprAccess            0                       # Class of committed instruction. (Count)
board.processor.cores1.core.commitStats0.committedInstType::InstPrefetch            0                       # Class of committed instruction. (Count)
board.processor.cores1.core.commitStats0.committedInstType::VectorUnitStrideLoad            0                       # Class of committed instruction. (Count)
board.processor.cores1.core.commitStats0.committedInstType::VectorUnitStrideStore            0                       # Class of committed instruction. (Count)
board.processor.cores1.core.commitStats0.committedInstType::VectorUnitStrideMaskLoad            0                       # Class of committed instruction. (Count)
board.processor.cores1.core.commitStats0.committedInstType::VectorUnitStrideMaskStore            0                       # Class of committed instruction. (Count)
board.processor.cores1.core.commitStats0.committedInstType::VectorStridedLoad            0                       # Class of committed instruction. (Count)
board.processor.cores1.core.commitStats0.committedInstType::VectorStridedStore            0                       # Class of committed instruction. (Count)
board.processor.cores1.core.commitStats0.committedInstType::VectorIndexedLoad            0                       # Class of committed instruction. (Count)
board.processor.cores1.core.commitStats0.committedInstType::VectorIndexedStore            0                       # Class of committed instruction. (Count)
board.processor.cores1.core.commitStats0.committedInstType::VectorUnitStrideFaultOnlyFirstLoad            0                       # Class of committed instruction. (Count)
board.processor.cores1.core.commitStats0.committedInstType::VectorWholeRegisterLoad            0                       # Class of committed instruction. (Count)
board.processor.cores1.core.commitStats0.committedInstType::VectorWholeRegisterStore            0                       # Class of committed instruction. (Count)
board.processor.cores1.core.commitStats0.committedInstType::VectorIntegerArith            0                       # Class of committed instruction. (Count)
board.processor.cores1.core.commitStats0.committedInstType::VectorFloatArith            0                       # Class of committed instruction. (Count)
board.processor.cores1.core.commitStats0.committedInstType::VectorFloatConvert            0                       # Class of committed instruction. (Count)
board.processor.cores1.core.commitStats0.committedInstType::VectorIntegerReduce            0                       # Class of committed instruction. (Count)
board.processor.cores1.core.commitStats0.committedInstType::VectorFloatReduce            0                       # Class of committed instruction. (Count)
board.processor.cores1.core.commitStats0.committedInstType::VectorMisc            0                       # Class of committed instruction. (Count)
board.processor.cores1.core.commitStats0.committedInstType::VectorIntegerExtension            0                       # Class of committed instruction. (Count)
board.processor.cores1.core.commitStats0.committedInstType::VectorConfig            0                       # Class of committed instruction. (Count)
board.processor.cores1.core.commitStats0.committedInstType::total            0                       # Class of committed instruction. (Count)
board.processor.cores1.core.executeStats0.numInsts            0                       # Number of executed instructions (Count)
board.processor.cores1.core.executeStats0.numNop            0                       # Number of nop insts executed (Count)
board.processor.cores1.core.executeStats0.numBranches            0                       # Number of branches executed (Count)
board.processor.cores1.core.executeStats0.numLoadInsts            0                       # Number of load instructions executed (Count)
board.processor.cores1.core.executeStats0.numStoreInsts            0                       # Number of stores executed (Count)
board.processor.cores1.core.executeStats0.instRate          nan                       # Inst execution rate ((Count/Cycle))
board.processor.cores1.core.executeStats0.numFpRegWrites            0                       # Number of times the floating registers were written (Count)
board.processor.cores1.core.executeStats0.numMemRefs            0                       # Number of memory refs (Count)
board.processor.cores1.core.executeStats0.numVecAluAccesses            0                       # Number of vector alu accesses (Count)
board.processor.cores1.core.executeStats0.numDiscardedOps            0                       # Number of ops (including micro ops) which were discarded before commit (Count)
board.processor.cores1.core.fetch.nisnDist::samples            0                       # Number of instructions fetched each cycle (Total) (Count)
board.processor.cores1.core.fetch.nisnDist::mean          nan                       # Number of instructions fetched each cycle (Total) (Count)
board.processor.cores1.core.fetch.nisnDist::stdev          nan                       # Number of instructions fetched each cycle (Total) (Count)
board.processor.cores1.core.fetch.nisnDist::underflows            0                       # Number of instructions fetched each cycle (Total) (Count)
board.processor.cores1.core.fetch.nisnDist::0            0                       # Number of instructions fetched each cycle (Total) (Count)
board.processor.cores1.core.fetch.nisnDist::1            0                       # Number of instructions fetched each cycle (Total) (Count)
board.processor.cores1.core.fetch.nisnDist::2            0                       # Number of instructions fetched each cycle (Total) (Count)
board.processor.cores1.core.fetch.nisnDist::3            0                       # Number of instructions fetched each cycle (Total) (Count)
board.processor.cores1.core.fetch.nisnDist::4            0                       # Number of instructions fetched each cycle (Total) (Count)
board.processor.cores1.core.fetch.nisnDist::overflows            0                       # Number of instructions fetched each cycle (Total) (Count)
board.processor.cores1.core.fetch.nisnDist::min_value            0                       # Number of instructions fetched each cycle (Total) (Count)
board.processor.cores1.core.fetch.nisnDist::max_value            0                       # Number of instructions fetched each cycle (Total) (Count)
board.processor.cores1.core.fetch.nisnDist::total            0                       # Number of instructions fetched each cycle (Total) (Count)
board.processor.cores1.core.fetch.idleRate          nan                       # Ratio of cycles fetch was idle (Ratio)
board.processor.cores1.core.fetchStats0.numInsts            0                       # Number of instructions fetched (thread level) (Count)
board.processor.cores1.core.fetchStats0.numOps            0                       # Number of ops (including micro ops) fetched (thread level) (Count)
board.processor.cores1.core.fetchStats0.fetchRate          nan                       # Number of inst fetches per cycle ((Count/Cycle))
board.processor.cores1.core.fetchStats0.branchRate          nan                       # Number of branch fetches per cycle (Ratio)
board.processor.cores1.core.fetchStats0.numFetchSuspends            0                       # Number of times Execute suspended instruction fetching (Count)
board.processor.cores1.core.iew.idleCycles            0                       # Number of cycles IEW is idle (Cycle)
board.processor.cores1.core.iew.squashCycles            0                       # Number of cycles IEW is squashing (Cycle)
board.processor.cores1.core.iew.blockCycles            0                       # Number of cycles IEW is blocking (Cycle)
board.processor.cores1.core.iew.unblockCycles            0                       # Number of cycles IEW is unblocking (Cycle)
board.processor.cores1.core.iew.dispatchedInsts            0                       # Number of instructions dispatched to IQ (Count)
board.processor.cores1.core.iew.dispSquashedInsts            0                       # Number of squashed instructions skipped by dispatch (Count)
board.processor.cores1.core.iew.dispLoadInsts            0                       # Number of dispatched load instructions (Count)
board.processor.cores1.core.iew.dispStoreInsts            0                       # Number of dispatched store instructions (Count)
board.processor.cores1.core.iew.dispNonSpecInsts            0                       # Number of dispatched non-speculative instructions (Count)
board.processor.cores1.core.iew.iqFullEvents            0                       # Number of times the IQ has become full, causing a stall (Count)
board.processor.cores1.core.iew.lsqFullEvents            0                       # Number of times the LSQ has become full, causing a stall (Count)
board.processor.cores1.core.iew.memOrderViolationEvents            0                       # Number of memory order violations (Count)
board.processor.cores1.core.iew.predictedTakenIncorrect            0                       # Number of branches that were predicted taken incorrectly (Count)
board.processor.cores1.core.iew.predictedNotTakenIncorrect            0                       # Number of branches that were predicted not taken incorrectly (Count)
board.processor.cores1.core.iew.branchMispredicts            0                       # Number of branch mispredicts detected at execute (Count)
board.processor.cores1.core.iew.instsToCommit            0                       # Cumulative count of insts sent to commit (Count)
board.processor.cores1.core.iew.writebackCount            0                       # Cumulative count of insts written-back (Count)
board.processor.cores1.core.iew.producerInst            0                       # Number of instructions producing a value (Count)
board.processor.cores1.core.iew.consumerInst            0                       # Number of instructions consuming a value (Count)
board.processor.cores1.core.iew.wbRate            nan                       # Insts written-back per cycle ((Count/Cycle))
board.processor.cores1.core.iew.wbFanout          nan                       # Average fanout of values written-back ((Count/Count))
board.processor.cores1.core.lsq0.forwLoads            0                       # Number of loads that had data forwarded from stores (Count)
board.processor.cores1.core.lsq0.squashedLoads            0                       # Number of loads squashed (Count)
board.processor.cores1.core.lsq0.ignoredResponses            0                       # Number of memory responses ignored because the instruction is squashed (Count)
board.processor.cores1.core.lsq0.memOrderViolation            0                       # Number of memory ordering violations (Count)
board.processor.cores1.core.lsq0.squashedStores            0                       # Number of stores squashed (Count)
board.processor.cores1.core.lsq0.rescheduledLoads            0                       # Number of loads that were rescheduled (Count)
board.processor.cores1.core.lsq0.blockedByCache            0                       # Number of times an access to memory failed due to the cache being blocked (Count)
board.processor.cores1.core.mmu.dtb.readHits            0                       # read hits (Count)
board.processor.cores1.core.mmu.dtb.readMisses            0                       # read misses (Count)
board.processor.cores1.core.mmu.dtb.readAccesses            0                       # read accesses (Count)
board.processor.cores1.core.mmu.dtb.writeHits            0                       # write hits (Count)
board.processor.cores1.core.mmu.dtb.writeMisses            0                       # write misses (Count)
board.processor.cores1.core.mmu.dtb.writeAccesses            0                       # write accesses (Count)
board.processor.cores1.core.mmu.dtb.hits            0                       # Total TLB (read and write) hits (Count)
board.processor.cores1.core.mmu.dtb.misses            0                       # Total TLB (read and write) misses (Count)
board.processor.cores1.core.mmu.dtb.accesses            0                       # Total TLB (read and write) accesses (Count)
board.processor.cores1.core.mmu.dtb.walker.power_state.pwrStateResidencyTicks::UNDEFINED 170023877260                       # Cumulative time (in ticks) in various power states (Tick)
board.processor.cores1.core.mmu.itb.readHits            0                       # read hits (Count)
board.processor.cores1.core.mmu.itb.readMisses            0                       # read misses (Count)
board.processor.cores1.core.mmu.itb.readAccesses            0                       # read accesses (Count)
board.processor.cores1.core.mmu.itb.writeHits            0                       # write hits (Count)
board.processor.cores1.core.mmu.itb.writeMisses            0                       # write misses (Count)
board.processor.cores1.core.mmu.itb.writeAccesses            0                       # write accesses (Count)
board.processor.cores1.core.mmu.itb.hits            0                       # Total TLB (read and write) hits (Count)
board.processor.cores1.core.mmu.itb.misses            0                       # Total TLB (read and write) misses (Count)
board.processor.cores1.core.mmu.itb.accesses            0                       # Total TLB (read and write) accesses (Count)
board.processor.cores1.core.mmu.itb.walker.power_state.pwrStateResidencyTicks::UNDEFINED 170023877260                       # Cumulative time (in ticks) in various power states (Tick)
board.processor.cores1.core.power_state.pwrStateResidencyTicks::ON 170023877260                       # Cumulative time (in ticks) in various power states (Tick)
board.processor.cores1.core.rename.serializeStallCycles            0                       # count of cycles rename stalled for serializing inst (Cycle)
board.processor.cores1.core.rename.serializing            0                       # count of serializing insts renamed (Count)
board.processor.cores1.core.rename.tempSerializing            0                       # count of temporary serializing insts renamed (Count)
board.processor.cores1.core.rename.skidInsts            0                       # count of insts added to the skid buffer (Count)
board.processor.cores1.core.rob.reads               0                       # The number of ROB reads (Count)
board.processor.cores1.core.rob.writes              0                       # The number of ROB writes (Count)
board.processor.cores1.core.thread_0.numInsts            0                       # Number of Instructions committed (Count)
board.processor.cores1.core.thread_0.numOps            0                       # Number of Ops committed (Count)
board.processor.cores1.core.thread_0.numMemRefs            0                       # Number of Memory References (Count)
board.workload.inst.arm                             0                       # number of arm instructions executed (Count)
board.workload.inst.quiesce                         0                       # number of quiesce instructions executed (Count)

---------- End Simulation Statistics   ----------
