
---------- Begin Simulation Statistics ----------
simSeconds                                   0.000329                       # Number of seconds simulated (Second)
simTicks                                    329070710                       # Number of ticks simulated (Tick)
finalTick                                   329070710                       # Number of ticks from beginning of simulation (restored from checkpoints and never reset) (Tick)
simFreq                                  1000000000000                       # The number of ticks per simulated second ((Tick/Second))
hostSeconds                                     41.52                       # Real time elapsed on the host (Second)
hostTickRate                                  7925923                       # The number of ticks simulated per host second (ticks/s) ((Tick/Second))
hostMemory                                    8639588                       # Number of bytes of host memory used (Byte)
simInsts                                     13782066                       # Number of instructions simulated (Count)
simOps                                       13859770                       # Number of ops (including micro ops) simulated (Count)
hostInstRate                                   331951                       # Simulator instruction rate (inst/s) ((Count/Second))
hostOpRate                                     333823                       # Simulator op (including micro ops) rate (op/s) ((Count/Second))
board.cache_hierarchy.dptw_caches0.blockedCycles::no_mshrs            0                       # number of cycles access was blocked (Cycle)
board.cache_hierarchy.dptw_caches0.blockedCycles::no_targets            0                       # number of cycles access was blocked (Cycle)
board.cache_hierarchy.dptw_caches0.blockedCauses::no_mshrs            0                       # number of times access was blocked (Count)
board.cache_hierarchy.dptw_caches0.blockedCauses::no_targets            0                       # number of times access was blocked (Count)
board.cache_hierarchy.dptw_caches0.avgBlocked::no_mshrs          nan                       # average number of cycles each access was blocked ((Cycle/Count))
board.cache_hierarchy.dptw_caches0.avgBlocked::no_targets          nan                       # average number of cycles each access was blocked ((Cycle/Count))
board.cache_hierarchy.dptw_caches0.replacements            0                       # number of replacements (Count)
board.cache_hierarchy.dptw_caches0.power_state.pwrStateResidencyTicks::UNDEFINED    329070710                       # Cumulative time (in ticks) in various power states (Tick)
board.cache_hierarchy.dptw_caches0.tags.tagsInUse            0                       # Average ticks per tags in use ((Tick/Count))
board.cache_hierarchy.dptw_caches0.tags.totalRefs            0                       # Total number of references to valid blocks. (Count)
board.cache_hierarchy.dptw_caches0.tags.sampledRefs            0                       # Sample count of references to valid blocks. (Count)
board.cache_hierarchy.dptw_caches0.tags.avgRefs          nan                       # Average number of references to valid blocks. ((Count/Count))
board.cache_hierarchy.dptw_caches0.tags.warmupTick            0                       # The tick when the warmup percentage was hit. (Tick)
board.cache_hierarchy.dptw_caches0.tags.tagAccesses            0                       # Number of tag accesses (Count)
board.cache_hierarchy.dptw_caches0.tags.dataAccesses            0                       # Number of data accesses (Count)
board.cache_hierarchy.dptw_caches0.tags.power_state.pwrStateResidencyTicks::UNDEFINED    329070710                       # Cumulative time (in ticks) in various power states (Tick)
board.cache_hierarchy.dptw_caches1.blockedCycles::no_mshrs            0                       # number of cycles access was blocked (Cycle)
board.cache_hierarchy.dptw_caches1.blockedCycles::no_targets            0                       # number of cycles access was blocked (Cycle)
board.cache_hierarchy.dptw_caches1.blockedCauses::no_mshrs            0                       # number of times access was blocked (Count)
board.cache_hierarchy.dptw_caches1.blockedCauses::no_targets            0                       # number of times access was blocked (Count)
board.cache_hierarchy.dptw_caches1.avgBlocked::no_mshrs          nan                       # average number of cycles each access was blocked ((Cycle/Count))
board.cache_hierarchy.dptw_caches1.avgBlocked::no_targets          nan                       # average number of cycles each access was blocked ((Cycle/Count))
board.cache_hierarchy.dptw_caches1.replacements            0                       # number of replacements (Count)
board.cache_hierarchy.dptw_caches1.power_state.pwrStateResidencyTicks::UNDEFINED    329070710                       # Cumulative time (in ticks) in various power states (Tick)
board.cache_hierarchy.dptw_caches1.tags.tagsInUse            0                       # Average ticks per tags in use ((Tick/Count))
board.cache_hierarchy.dptw_caches1.tags.totalRefs            0                       # Total number of references to valid blocks. (Count)
board.cache_hierarchy.dptw_caches1.tags.sampledRefs            0                       # Sample count of references to valid blocks. (Count)
board.cache_hierarchy.dptw_caches1.tags.avgRefs          nan                       # Average number of references to valid blocks. ((Count/Count))
board.cache_hierarchy.dptw_caches1.tags.warmupTick            0                       # The tick when the warmup percentage was hit. (Tick)
board.cache_hierarchy.dptw_caches1.tags.tagAccesses            0                       # Number of tag accesses (Count)
board.cache_hierarchy.dptw_caches1.tags.dataAccesses            0                       # Number of data accesses (Count)
board.cache_hierarchy.dptw_caches1.tags.power_state.pwrStateResidencyTicks::UNDEFINED    329070710                       # Cumulative time (in ticks) in various power states (Tick)
board.cache_hierarchy.iptw_caches0.blockedCycles::no_mshrs            0                       # number of cycles access was blocked (Cycle)
board.cache_hierarchy.iptw_caches0.blockedCycles::no_targets            0                       # number of cycles access was blocked (Cycle)
board.cache_hierarchy.iptw_caches0.blockedCauses::no_mshrs            0                       # number of times access was blocked (Count)
board.cache_hierarchy.iptw_caches0.blockedCauses::no_targets            0                       # number of times access was blocked (Count)
board.cache_hierarchy.iptw_caches0.avgBlocked::no_mshrs          nan                       # average number of cycles each access was blocked ((Cycle/Count))
board.cache_hierarchy.iptw_caches0.avgBlocked::no_targets          nan                       # average number of cycles each access was blocked ((Cycle/Count))
board.cache_hierarchy.iptw_caches0.replacements            0                       # number of replacements (Count)
board.cache_hierarchy.iptw_caches0.power_state.pwrStateResidencyTicks::UNDEFINED    329070710                       # Cumulative time (in ticks) in various power states (Tick)
board.cache_hierarchy.iptw_caches0.tags.tagsInUse            0                       # Average ticks per tags in use ((Tick/Count))
board.cache_hierarchy.iptw_caches0.tags.totalRefs            0                       # Total number of references to valid blocks. (Count)
board.cache_hierarchy.iptw_caches0.tags.sampledRefs            0                       # Sample count of references to valid blocks. (Count)
board.cache_hierarchy.iptw_caches0.tags.avgRefs          nan                       # Average number of references to valid blocks. ((Count/Count))
board.cache_hierarchy.iptw_caches0.tags.warmupTick            0                       # The tick when the warmup percentage was hit. (Tick)
board.cache_hierarchy.iptw_caches0.tags.tagAccesses            0                       # Number of tag accesses (Count)
board.cache_hierarchy.iptw_caches0.tags.dataAccesses            0                       # Number of data accesses (Count)
board.cache_hierarchy.iptw_caches0.tags.power_state.pwrStateResidencyTicks::UNDEFINED    329070710                       # Cumulative time (in ticks) in various power states (Tick)
board.cache_hierarchy.iptw_caches1.blockedCycles::no_mshrs            0                       # number of cycles access was blocked (Cycle)
board.cache_hierarchy.iptw_caches1.blockedCycles::no_targets            0                       # number of cycles access was blocked (Cycle)
board.cache_hierarchy.iptw_caches1.blockedCauses::no_mshrs            0                       # number of times access was blocked (Count)
board.cache_hierarchy.iptw_caches1.blockedCauses::no_targets            0                       # number of times access was blocked (Count)
board.cache_hierarchy.iptw_caches1.avgBlocked::no_mshrs          nan                       # average number of cycles each access was blocked ((Cycle/Count))
board.cache_hierarchy.iptw_caches1.avgBlocked::no_targets          nan                       # average number of cycles each access was blocked ((Cycle/Count))
board.cache_hierarchy.iptw_caches1.replacements            0                       # number of replacements (Count)
board.cache_hierarchy.iptw_caches1.power_state.pwrStateResidencyTicks::UNDEFINED    329070710                       # Cumulative time (in ticks) in various power states (Tick)
board.cache_hierarchy.iptw_caches1.tags.tagsInUse            0                       # Average ticks per tags in use ((Tick/Count))
board.cache_hierarchy.iptw_caches1.tags.totalRefs            0                       # Total number of references to valid blocks. (Count)
board.cache_hierarchy.iptw_caches1.tags.sampledRefs            0                       # Sample count of references to valid blocks. (Count)
board.cache_hierarchy.iptw_caches1.tags.avgRefs          nan                       # Average number of references to valid blocks. ((Count/Count))
board.cache_hierarchy.iptw_caches1.tags.warmupTick            0                       # The tick when the warmup percentage was hit. (Tick)
board.cache_hierarchy.iptw_caches1.tags.tagAccesses            0                       # Number of tag accesses (Count)
board.cache_hierarchy.iptw_caches1.tags.dataAccesses            0                       # Number of data accesses (Count)
board.cache_hierarchy.iptw_caches1.tags.power_state.pwrStateResidencyTicks::UNDEFINED    329070710                       # Cumulative time (in ticks) in various power states (Tick)
board.cache_hierarchy.l1dcaches0.demandHits::processor.cores0.core.data      2172258                       # number of demand (read+write) hits (Count)
board.cache_hierarchy.l1dcaches0.demandHits::total      2172258                       # number of demand (read+write) hits (Count)
board.cache_hierarchy.l1dcaches0.overallHits::processor.cores0.core.data      2172258                       # number of overall hits (Count)
board.cache_hierarchy.l1dcaches0.overallHits::total      2172258                       # number of overall hits (Count)
board.cache_hierarchy.l1dcaches0.demandMisses::processor.cores0.core.data        49104                       # number of demand (read+write) misses (Count)
board.cache_hierarchy.l1dcaches0.demandMisses::total        49104                       # number of demand (read+write) misses (Count)
board.cache_hierarchy.l1dcaches0.overallMisses::processor.cores0.core.data        49104                       # number of overall misses (Count)
board.cache_hierarchy.l1dcaches0.overallMisses::total        49104                       # number of overall misses (Count)
board.cache_hierarchy.l1dcaches0.demandMissLatency::processor.cores0.core.data    669910057                       # number of demand (read+write) miss ticks (Tick)
board.cache_hierarchy.l1dcaches0.demandMissLatency::total    669910057                       # number of demand (read+write) miss ticks (Tick)
board.cache_hierarchy.l1dcaches0.overallMissLatency::processor.cores0.core.data    669910057                       # number of overall miss ticks (Tick)
board.cache_hierarchy.l1dcaches0.overallMissLatency::total    669910057                       # number of overall miss ticks (Tick)
board.cache_hierarchy.l1dcaches0.demandAccesses::processor.cores0.core.data      2221362                       # number of demand (read+write) accesses (Count)
board.cache_hierarchy.l1dcaches0.demandAccesses::total      2221362                       # number of demand (read+write) accesses (Count)
board.cache_hierarchy.l1dcaches0.overallAccesses::processor.cores0.core.data      2221362                       # number of overall (read+write) accesses (Count)
board.cache_hierarchy.l1dcaches0.overallAccesses::total      2221362                       # number of overall (read+write) accesses (Count)
board.cache_hierarchy.l1dcaches0.demandMissRate::processor.cores0.core.data     0.022105                       # miss rate for demand accesses (Ratio)
board.cache_hierarchy.l1dcaches0.demandMissRate::total     0.022105                       # miss rate for demand accesses (Ratio)
board.cache_hierarchy.l1dcaches0.overallMissRate::processor.cores0.core.data     0.022105                       # miss rate for overall accesses (Ratio)
board.cache_hierarchy.l1dcaches0.overallMissRate::total     0.022105                       # miss rate for overall accesses (Ratio)
board.cache_hierarchy.l1dcaches0.demandAvgMissLatency::processor.cores0.core.data 13642.677928                       # average overall miss latency in ticks ((Tick/Count))
board.cache_hierarchy.l1dcaches0.demandAvgMissLatency::total 13642.677928                       # average overall miss latency in ticks ((Tick/Count))
board.cache_hierarchy.l1dcaches0.overallAvgMissLatency::processor.cores0.core.data 13642.677928                       # average overall miss latency ((Tick/Count))
board.cache_hierarchy.l1dcaches0.overallAvgMissLatency::total 13642.677928                       # average overall miss latency ((Tick/Count))
board.cache_hierarchy.l1dcaches0.blockedCycles::no_mshrs           57                       # number of cycles access was blocked (Cycle)
board.cache_hierarchy.l1dcaches0.blockedCycles::no_targets        16051                       # number of cycles access was blocked (Cycle)
board.cache_hierarchy.l1dcaches0.blockedCauses::no_mshrs            7                       # number of times access was blocked (Count)
board.cache_hierarchy.l1dcaches0.blockedCauses::no_targets            3                       # number of times access was blocked (Count)
board.cache_hierarchy.l1dcaches0.avgBlocked::no_mshrs     8.142857                       # average number of cycles each access was blocked ((Cycle/Count))
board.cache_hierarchy.l1dcaches0.avgBlocked::no_targets  5350.333333                       # average number of cycles each access was blocked ((Cycle/Count))
board.cache_hierarchy.l1dcaches0.writebacks::writebacks        13076                       # number of writebacks (Count)
board.cache_hierarchy.l1dcaches0.writebacks::total        13076                       # number of writebacks (Count)
board.cache_hierarchy.l1dcaches0.demandMshrHits::processor.cores0.core.data        28701                       # number of demand (read+write) MSHR hits (Count)
board.cache_hierarchy.l1dcaches0.demandMshrHits::total        28701                       # number of demand (read+write) MSHR hits (Count)
board.cache_hierarchy.l1dcaches0.overallMshrHits::processor.cores0.core.data        28701                       # number of overall MSHR hits (Count)
board.cache_hierarchy.l1dcaches0.overallMshrHits::total        28701                       # number of overall MSHR hits (Count)
board.cache_hierarchy.l1dcaches0.demandMshrMisses::processor.cores0.core.data        20403                       # number of demand (read+write) MSHR misses (Count)
board.cache_hierarchy.l1dcaches0.demandMshrMisses::total        20403                       # number of demand (read+write) MSHR misses (Count)
board.cache_hierarchy.l1dcaches0.overallMshrMisses::cache_hierarchy.l1dcaches0.prefetcher         5987                       # number of overall MSHR misses (Count)
board.cache_hierarchy.l1dcaches0.overallMshrMisses::processor.cores0.core.data        20403                       # number of overall MSHR misses (Count)
board.cache_hierarchy.l1dcaches0.overallMshrMisses::total        26390                       # number of overall MSHR misses (Count)
board.cache_hierarchy.l1dcaches0.demandMshrMissLatency::processor.cores0.core.data    170363560                       # number of demand (read+write) MSHR miss ticks (Tick)
board.cache_hierarchy.l1dcaches0.demandMshrMissLatency::total    170363560                       # number of demand (read+write) MSHR miss ticks (Tick)
board.cache_hierarchy.l1dcaches0.overallMshrMissLatency::cache_hierarchy.l1dcaches0.prefetcher    101032831                       # number of overall MSHR miss ticks (Tick)
board.cache_hierarchy.l1dcaches0.overallMshrMissLatency::processor.cores0.core.data    170363560                       # number of overall MSHR miss ticks (Tick)
board.cache_hierarchy.l1dcaches0.overallMshrMissLatency::total    271396391                       # number of overall MSHR miss ticks (Tick)
board.cache_hierarchy.l1dcaches0.demandMshrMissRate::processor.cores0.core.data     0.009185                       # mshr miss ratio for demand accesses (Ratio)
board.cache_hierarchy.l1dcaches0.demandMshrMissRate::total     0.009185                       # mshr miss ratio for demand accesses (Ratio)
board.cache_hierarchy.l1dcaches0.overallMshrMissRate::cache_hierarchy.l1dcaches0.prefetcher          inf                       # mshr miss ratio for overall accesses (Ratio)
board.cache_hierarchy.l1dcaches0.overallMshrMissRate::processor.cores0.core.data     0.009185                       # mshr miss ratio for overall accesses (Ratio)
board.cache_hierarchy.l1dcaches0.overallMshrMissRate::total     0.011880                       # mshr miss ratio for overall accesses (Ratio)
board.cache_hierarchy.l1dcaches0.demandAvgMshrMissLatency::processor.cores0.core.data  8349.926972                       # average overall mshr miss latency ((Tick/Count))
board.cache_hierarchy.l1dcaches0.demandAvgMshrMissLatency::total  8349.926972                       # average overall mshr miss latency ((Tick/Count))
board.cache_hierarchy.l1dcaches0.overallAvgMshrMissLatency::cache_hierarchy.l1dcaches0.prefetcher 16875.368465                       # average overall mshr miss latency ((Tick/Count))
board.cache_hierarchy.l1dcaches0.overallAvgMshrMissLatency::processor.cores0.core.data  8349.926972                       # average overall mshr miss latency ((Tick/Count))
board.cache_hierarchy.l1dcaches0.overallAvgMshrMissLatency::total 10284.061804                       # average overall mshr miss latency ((Tick/Count))
board.cache_hierarchy.l1dcaches0.replacements        14355                       # number of replacements (Count)
board.cache_hierarchy.l1dcaches0.HardPFReq.mshrMisses::cache_hierarchy.l1dcaches0.prefetcher         5987                       # number of HardPFReq MSHR misses (Count)
board.cache_hierarchy.l1dcaches0.HardPFReq.mshrMisses::total         5987                       # number of HardPFReq MSHR misses (Count)
board.cache_hierarchy.l1dcaches0.HardPFReq.mshrMissLatency::cache_hierarchy.l1dcaches0.prefetcher    101032831                       # number of HardPFReq MSHR miss ticks (Tick)
board.cache_hierarchy.l1dcaches0.HardPFReq.mshrMissLatency::total    101032831                       # number of HardPFReq MSHR miss ticks (Tick)
board.cache_hierarchy.l1dcaches0.HardPFReq.mshrMissRate::cache_hierarchy.l1dcaches0.prefetcher          inf                       # mshr miss rate for HardPFReq accesses (Ratio)
board.cache_hierarchy.l1dcaches0.HardPFReq.mshrMissRate::total          inf                       # mshr miss rate for HardPFReq accesses (Ratio)
board.cache_hierarchy.l1dcaches0.HardPFReq.avgMshrMissLatency::cache_hierarchy.l1dcaches0.prefetcher 16875.368465                       # average HardPFReq mshr miss latency ((Tick/Count))
board.cache_hierarchy.l1dcaches0.HardPFReq.avgMshrMissLatency::total 16875.368465                       # average HardPFReq mshr miss latency ((Tick/Count))
board.cache_hierarchy.l1dcaches0.LoadLockedReq.hits::processor.cores0.core.data         4098                       # number of LoadLockedReq hits (Count)
board.cache_hierarchy.l1dcaches0.LoadLockedReq.hits::total         4098                       # number of LoadLockedReq hits (Count)
board.cache_hierarchy.l1dcaches0.LoadLockedReq.misses::processor.cores0.core.data          691                       # number of LoadLockedReq misses (Count)
board.cache_hierarchy.l1dcaches0.LoadLockedReq.misses::total          691                       # number of LoadLockedReq misses (Count)
board.cache_hierarchy.l1dcaches0.LoadLockedReq.missLatency::processor.cores0.core.data       801160                       # number of LoadLockedReq miss ticks (Tick)
board.cache_hierarchy.l1dcaches0.LoadLockedReq.missLatency::total       801160                       # number of LoadLockedReq miss ticks (Tick)
board.cache_hierarchy.l1dcaches0.LoadLockedReq.accesses::processor.cores0.core.data         4789                       # number of LoadLockedReq accesses(hits+misses) (Count)
board.cache_hierarchy.l1dcaches0.LoadLockedReq.accesses::total         4789                       # number of LoadLockedReq accesses(hits+misses) (Count)
board.cache_hierarchy.l1dcaches0.LoadLockedReq.missRate::processor.cores0.core.data     0.144289                       # miss rate for LoadLockedReq accesses (Ratio)
board.cache_hierarchy.l1dcaches0.LoadLockedReq.missRate::total     0.144289                       # miss rate for LoadLockedReq accesses (Ratio)
board.cache_hierarchy.l1dcaches0.LoadLockedReq.avgMissLatency::processor.cores0.core.data  1159.421129                       # average LoadLockedReq miss latency ((Tick/Count))
board.cache_hierarchy.l1dcaches0.LoadLockedReq.avgMissLatency::total  1159.421129                       # average LoadLockedReq miss latency ((Tick/Count))
board.cache_hierarchy.l1dcaches0.LoadLockedReq.mshrHits::processor.cores0.core.data          420                       # number of LoadLockedReq MSHR hits (Count)
board.cache_hierarchy.l1dcaches0.LoadLockedReq.mshrHits::total          420                       # number of LoadLockedReq MSHR hits (Count)
board.cache_hierarchy.l1dcaches0.LoadLockedReq.mshrMisses::processor.cores0.core.data          271                       # number of LoadLockedReq MSHR misses (Count)
board.cache_hierarchy.l1dcaches0.LoadLockedReq.mshrMisses::total          271                       # number of LoadLockedReq MSHR misses (Count)
board.cache_hierarchy.l1dcaches0.LoadLockedReq.mshrMissLatency::processor.cores0.core.data       570290                       # number of LoadLockedReq MSHR miss ticks (Tick)
board.cache_hierarchy.l1dcaches0.LoadLockedReq.mshrMissLatency::total       570290                       # number of LoadLockedReq MSHR miss ticks (Tick)
board.cache_hierarchy.l1dcaches0.LoadLockedReq.mshrMissRate::processor.cores0.core.data     0.056588                       # mshr miss rate for LoadLockedReq accesses (Ratio)
board.cache_hierarchy.l1dcaches0.LoadLockedReq.mshrMissRate::total     0.056588                       # mshr miss rate for LoadLockedReq accesses (Ratio)
board.cache_hierarchy.l1dcaches0.LoadLockedReq.avgMshrMissLatency::processor.cores0.core.data  2104.391144                       # average LoadLockedReq mshr miss latency ((Tick/Count))
board.cache_hierarchy.l1dcaches0.LoadLockedReq.avgMshrMissLatency::total  2104.391144                       # average LoadLockedReq mshr miss latency ((Tick/Count))
board.cache_hierarchy.l1dcaches0.ReadReq.hits::processor.cores0.core.data      1613419                       # number of ReadReq hits (Count)
board.cache_hierarchy.l1dcaches0.ReadReq.hits::total      1613419                       # number of ReadReq hits (Count)
board.cache_hierarchy.l1dcaches0.ReadReq.misses::processor.cores0.core.data        17783                       # number of ReadReq misses (Count)
board.cache_hierarchy.l1dcaches0.ReadReq.misses::total        17783                       # number of ReadReq misses (Count)
board.cache_hierarchy.l1dcaches0.ReadReq.missLatency::processor.cores0.core.data     53042040                       # number of ReadReq miss ticks (Tick)
board.cache_hierarchy.l1dcaches0.ReadReq.missLatency::total     53042040                       # number of ReadReq miss ticks (Tick)
board.cache_hierarchy.l1dcaches0.ReadReq.accesses::processor.cores0.core.data      1631202                       # number of ReadReq accesses(hits+misses) (Count)
board.cache_hierarchy.l1dcaches0.ReadReq.accesses::total      1631202                       # number of ReadReq accesses(hits+misses) (Count)
board.cache_hierarchy.l1dcaches0.ReadReq.missRate::processor.cores0.core.data     0.010902                       # miss rate for ReadReq accesses (Ratio)
board.cache_hierarchy.l1dcaches0.ReadReq.missRate::total     0.010902                       # miss rate for ReadReq accesses (Ratio)
board.cache_hierarchy.l1dcaches0.ReadReq.avgMissLatency::processor.cores0.core.data  2982.738571                       # average ReadReq miss latency ((Tick/Count))
board.cache_hierarchy.l1dcaches0.ReadReq.avgMissLatency::total  2982.738571                       # average ReadReq miss latency ((Tick/Count))
board.cache_hierarchy.l1dcaches0.ReadReq.mshrHits::processor.cores0.core.data        11457                       # number of ReadReq MSHR hits (Count)
board.cache_hierarchy.l1dcaches0.ReadReq.mshrHits::total        11457                       # number of ReadReq MSHR hits (Count)
board.cache_hierarchy.l1dcaches0.ReadReq.mshrMisses::processor.cores0.core.data         6326                       # number of ReadReq MSHR misses (Count)
board.cache_hierarchy.l1dcaches0.ReadReq.mshrMisses::total         6326                       # number of ReadReq MSHR misses (Count)
board.cache_hierarchy.l1dcaches0.ReadReq.mshrMissLatency::processor.cores0.core.data     23009950                       # number of ReadReq MSHR miss ticks (Tick)
board.cache_hierarchy.l1dcaches0.ReadReq.mshrMissLatency::total     23009950                       # number of ReadReq MSHR miss ticks (Tick)
board.cache_hierarchy.l1dcaches0.ReadReq.mshrMissRate::processor.cores0.core.data     0.003878                       # mshr miss rate for ReadReq accesses (Ratio)
board.cache_hierarchy.l1dcaches0.ReadReq.mshrMissRate::total     0.003878                       # mshr miss rate for ReadReq accesses (Ratio)
board.cache_hierarchy.l1dcaches0.ReadReq.avgMshrMissLatency::processor.cores0.core.data  3637.361682                       # average ReadReq mshr miss latency ((Tick/Count))
board.cache_hierarchy.l1dcaches0.ReadReq.avgMshrMissLatency::total  3637.361682                       # average ReadReq mshr miss latency ((Tick/Count))
board.cache_hierarchy.l1dcaches0.StoreCondFailReq.missLatency::processor.cores0.core.data       101660                       # number of StoreCondFailReq miss ticks (Tick)
board.cache_hierarchy.l1dcaches0.StoreCondFailReq.missLatency::total       101660                       # number of StoreCondFailReq miss ticks (Tick)
board.cache_hierarchy.l1dcaches0.StoreCondFailReq.avgMissLatency::processor.cores0.core.data          inf                       # average StoreCondFailReq miss latency ((Tick/Count))
board.cache_hierarchy.l1dcaches0.StoreCondFailReq.avgMissLatency::total          inf                       # average StoreCondFailReq miss latency ((Tick/Count))
board.cache_hierarchy.l1dcaches0.StoreCondFailReq.mshrMissLatency::processor.cores0.core.data        99400                       # number of StoreCondFailReq MSHR miss ticks (Tick)
board.cache_hierarchy.l1dcaches0.StoreCondFailReq.mshrMissLatency::total        99400                       # number of StoreCondFailReq MSHR miss ticks (Tick)
board.cache_hierarchy.l1dcaches0.StoreCondFailReq.avgMshrMissLatency::processor.cores0.core.data          inf                       # average StoreCondFailReq mshr miss latency ((Tick/Count))
board.cache_hierarchy.l1dcaches0.StoreCondFailReq.avgMshrMissLatency::total          inf                       # average StoreCondFailReq mshr miss latency ((Tick/Count))
board.cache_hierarchy.l1dcaches0.StoreCondReq.hits::processor.cores0.core.data         2340                       # number of StoreCondReq hits (Count)
board.cache_hierarchy.l1dcaches0.StoreCondReq.hits::total         2340                       # number of StoreCondReq hits (Count)
board.cache_hierarchy.l1dcaches0.StoreCondReq.misses::processor.cores0.core.data         1612                       # number of StoreCondReq misses (Count)
board.cache_hierarchy.l1dcaches0.StoreCondReq.misses::total         1612                       # number of StoreCondReq misses (Count)
board.cache_hierarchy.l1dcaches0.StoreCondReq.missLatency::processor.cores0.core.data       429530                       # number of StoreCondReq miss ticks (Tick)
board.cache_hierarchy.l1dcaches0.StoreCondReq.missLatency::total       429530                       # number of StoreCondReq miss ticks (Tick)
board.cache_hierarchy.l1dcaches0.StoreCondReq.accesses::processor.cores0.core.data         3952                       # number of StoreCondReq accesses(hits+misses) (Count)
board.cache_hierarchy.l1dcaches0.StoreCondReq.accesses::total         3952                       # number of StoreCondReq accesses(hits+misses) (Count)
board.cache_hierarchy.l1dcaches0.StoreCondReq.missRate::processor.cores0.core.data     0.407895                       # miss rate for StoreCondReq accesses (Ratio)
board.cache_hierarchy.l1dcaches0.StoreCondReq.missRate::total     0.407895                       # miss rate for StoreCondReq accesses (Ratio)
board.cache_hierarchy.l1dcaches0.StoreCondReq.avgMissLatency::processor.cores0.core.data   266.457816                       # average StoreCondReq miss latency ((Tick/Count))
board.cache_hierarchy.l1dcaches0.StoreCondReq.avgMissLatency::total   266.457816                       # average StoreCondReq miss latency ((Tick/Count))
board.cache_hierarchy.l1dcaches0.StoreCondReq.mshrMisses::processor.cores0.core.data         1612                       # number of StoreCondReq MSHR misses (Count)
board.cache_hierarchy.l1dcaches0.StoreCondReq.mshrMisses::total         1612                       # number of StoreCondReq MSHR misses (Count)
board.cache_hierarchy.l1dcaches0.StoreCondReq.mshrMissLatency::processor.cores0.core.data       415670                       # number of StoreCondReq MSHR miss ticks (Tick)
board.cache_hierarchy.l1dcaches0.StoreCondReq.mshrMissLatency::total       415670                       # number of StoreCondReq MSHR miss ticks (Tick)
board.cache_hierarchy.l1dcaches0.StoreCondReq.mshrMissRate::processor.cores0.core.data     0.407895                       # mshr miss rate for StoreCondReq accesses (Ratio)
board.cache_hierarchy.l1dcaches0.StoreCondReq.mshrMissRate::total     0.407895                       # mshr miss rate for StoreCondReq accesses (Ratio)
board.cache_hierarchy.l1dcaches0.StoreCondReq.avgMshrMissLatency::processor.cores0.core.data   257.859801                       # average StoreCondReq mshr miss latency ((Tick/Count))
board.cache_hierarchy.l1dcaches0.StoreCondReq.avgMshrMissLatency::total   257.859801                       # average StoreCondReq mshr miss latency ((Tick/Count))
board.cache_hierarchy.l1dcaches0.SwapReq.hits::processor.cores0.core.data        17972                       # number of SwapReq hits (Count)
board.cache_hierarchy.l1dcaches0.SwapReq.hits::total        17972                       # number of SwapReq hits (Count)
board.cache_hierarchy.l1dcaches0.SwapReq.misses::processor.cores0.core.data        16246                       # number of SwapReq misses (Count)
board.cache_hierarchy.l1dcaches0.SwapReq.misses::total        16246                       # number of SwapReq misses (Count)
board.cache_hierarchy.l1dcaches0.SwapReq.missLatency::processor.cores0.core.data      4561390                       # number of SwapReq miss ticks (Tick)
board.cache_hierarchy.l1dcaches0.SwapReq.missLatency::total      4561390                       # number of SwapReq miss ticks (Tick)
board.cache_hierarchy.l1dcaches0.SwapReq.accesses::processor.cores0.core.data        34218                       # number of SwapReq accesses(hits+misses) (Count)
board.cache_hierarchy.l1dcaches0.SwapReq.accesses::total        34218                       # number of SwapReq accesses(hits+misses) (Count)
board.cache_hierarchy.l1dcaches0.SwapReq.missRate::processor.cores0.core.data     0.474779                       # miss rate for SwapReq accesses (Ratio)
board.cache_hierarchy.l1dcaches0.SwapReq.missRate::total     0.474779                       # miss rate for SwapReq accesses (Ratio)
board.cache_hierarchy.l1dcaches0.SwapReq.avgMissLatency::processor.cores0.core.data   280.770036                       # average SwapReq miss latency ((Tick/Count))
board.cache_hierarchy.l1dcaches0.SwapReq.avgMissLatency::total   280.770036                       # average SwapReq miss latency ((Tick/Count))
board.cache_hierarchy.l1dcaches0.SwapReq.mshrMisses::processor.cores0.core.data        16246                       # number of SwapReq MSHR misses (Count)
board.cache_hierarchy.l1dcaches0.SwapReq.mshrMisses::total        16246                       # number of SwapReq MSHR misses (Count)
board.cache_hierarchy.l1dcaches0.SwapReq.mshrMissLatency::processor.cores0.core.data      4398930                       # number of SwapReq MSHR miss ticks (Tick)
board.cache_hierarchy.l1dcaches0.SwapReq.mshrMissLatency::total      4398930                       # number of SwapReq MSHR miss ticks (Tick)
board.cache_hierarchy.l1dcaches0.SwapReq.mshrMissRate::processor.cores0.core.data     0.474779                       # mshr miss rate for SwapReq accesses (Ratio)
board.cache_hierarchy.l1dcaches0.SwapReq.mshrMissRate::total     0.474779                       # mshr miss rate for SwapReq accesses (Ratio)
board.cache_hierarchy.l1dcaches0.SwapReq.avgMshrMissLatency::processor.cores0.core.data   270.770036                       # average SwapReq mshr miss latency ((Tick/Count))
board.cache_hierarchy.l1dcaches0.SwapReq.avgMshrMissLatency::total   270.770036                       # average SwapReq mshr miss latency ((Tick/Count))
board.cache_hierarchy.l1dcaches0.WriteReq.hits::processor.cores0.core.data       558839                       # number of WriteReq hits (Count)
board.cache_hierarchy.l1dcaches0.WriteReq.hits::total       558839                       # number of WriteReq hits (Count)
board.cache_hierarchy.l1dcaches0.WriteReq.misses::processor.cores0.core.data        31321                       # number of WriteReq misses (Count)
board.cache_hierarchy.l1dcaches0.WriteReq.misses::total        31321                       # number of WriteReq misses (Count)
board.cache_hierarchy.l1dcaches0.WriteReq.missLatency::processor.cores0.core.data    616868017                       # number of WriteReq miss ticks (Tick)
board.cache_hierarchy.l1dcaches0.WriteReq.missLatency::total    616868017                       # number of WriteReq miss ticks (Tick)
board.cache_hierarchy.l1dcaches0.WriteReq.accesses::processor.cores0.core.data       590160                       # number of WriteReq accesses(hits+misses) (Count)
board.cache_hierarchy.l1dcaches0.WriteReq.accesses::total       590160                       # number of WriteReq accesses(hits+misses) (Count)
board.cache_hierarchy.l1dcaches0.WriteReq.missRate::processor.cores0.core.data     0.053072                       # miss rate for WriteReq accesses (Ratio)
board.cache_hierarchy.l1dcaches0.WriteReq.missRate::total     0.053072                       # miss rate for WriteReq accesses (Ratio)
board.cache_hierarchy.l1dcaches0.WriteReq.avgMissLatency::processor.cores0.core.data 19695.029437                       # average WriteReq miss latency ((Tick/Count))
board.cache_hierarchy.l1dcaches0.WriteReq.avgMissLatency::total 19695.029437                       # average WriteReq miss latency ((Tick/Count))
board.cache_hierarchy.l1dcaches0.WriteReq.mshrHits::processor.cores0.core.data        17244                       # number of WriteReq MSHR hits (Count)
board.cache_hierarchy.l1dcaches0.WriteReq.mshrHits::total        17244                       # number of WriteReq MSHR hits (Count)
board.cache_hierarchy.l1dcaches0.WriteReq.mshrMisses::processor.cores0.core.data        14077                       # number of WriteReq MSHR misses (Count)
board.cache_hierarchy.l1dcaches0.WriteReq.mshrMisses::total        14077                       # number of WriteReq MSHR misses (Count)
board.cache_hierarchy.l1dcaches0.WriteReq.mshrMissLatency::processor.cores0.core.data    147353610                       # number of WriteReq MSHR miss ticks (Tick)
board.cache_hierarchy.l1dcaches0.WriteReq.mshrMissLatency::total    147353610                       # number of WriteReq MSHR miss ticks (Tick)
board.cache_hierarchy.l1dcaches0.WriteReq.mshrMissRate::processor.cores0.core.data     0.023853                       # mshr miss rate for WriteReq accesses (Ratio)
board.cache_hierarchy.l1dcaches0.WriteReq.mshrMissRate::total     0.023853                       # mshr miss rate for WriteReq accesses (Ratio)
board.cache_hierarchy.l1dcaches0.WriteReq.avgMshrMissLatency::processor.cores0.core.data 10467.685586                       # average WriteReq mshr miss latency ((Tick/Count))
board.cache_hierarchy.l1dcaches0.WriteReq.avgMshrMissLatency::total 10467.685586                       # average WriteReq mshr miss latency ((Tick/Count))
board.cache_hierarchy.l1dcaches0.clk_domain.clock           10                       # Clock period in ticks (Tick)
board.cache_hierarchy.l1dcaches0.clk_domain.voltage_domain.voltage            1                       # Voltage in Volts (Volt)
board.cache_hierarchy.l1dcaches0.power_state.pwrStateResidencyTicks::UNDEFINED    329070710                       # Cumulative time (in ticks) in various power states (Tick)
board.cache_hierarchy.l1dcaches0.prefetcher.demandMshrMisses        20403                       # demands not covered by prefetchs (Count)
board.cache_hierarchy.l1dcaches0.prefetcher.pfIssued        44845                       # number of hwpf issued (Count)
board.cache_hierarchy.l1dcaches0.prefetcher.pfUnused          669                       # number of HardPF blocks evicted w/o reference (Count)
board.cache_hierarchy.l1dcaches0.prefetcher.pfUseful         5654                       # number of useful prefetch (Count)
board.cache_hierarchy.l1dcaches0.prefetcher.pfUsefulButMiss         1005                       # number of hit on prefetch but cache block is not in an usable state (Count)
board.cache_hierarchy.l1dcaches0.prefetcher.accuracy     0.126079                       # accuracy of the prefetcher (Count)
board.cache_hierarchy.l1dcaches0.prefetcher.coverage     0.216986                       # coverage brought by this prefetcher (Count)
board.cache_hierarchy.l1dcaches0.prefetcher.pfHitInCache        23007                       # number of prefetches hitting in cache (Count)
board.cache_hierarchy.l1dcaches0.prefetcher.pfHitInMSHR        15851                       # number of prefetches hitting in a MSHR (Count)
board.cache_hierarchy.l1dcaches0.prefetcher.pfHitInWB            0                       # number of prefetches hit in the Write Buffer (Count)
board.cache_hierarchy.l1dcaches0.prefetcher.pfLate        38858                       # number of late prefetches (hitting in cache, MSHR or WB) (Count)
board.cache_hierarchy.l1dcaches0.prefetcher.pfIdentified        53250                       # number of prefetch candidates identified (Count)
board.cache_hierarchy.l1dcaches0.prefetcher.pfBufferHit         7630                       # number of redundant prefetches already in prefetch queue (Count)
board.cache_hierarchy.l1dcaches0.prefetcher.pfInCache            0                       # number of redundant prefetches already in cache/mshr dropped (Count)
board.cache_hierarchy.l1dcaches0.prefetcher.pfRemovedDemand           41                       # number of prefetches dropped due to a demand for the same address (Count)
board.cache_hierarchy.l1dcaches0.prefetcher.pfRemovedFull            0                       # number of prefetches dropped due to prefetch queue size (Count)
board.cache_hierarchy.l1dcaches0.prefetcher.pfSpanPage         3306                       # number of prefetches that crossed the page (Count)
board.cache_hierarchy.l1dcaches0.prefetcher.pfUsefulSpanPage           84                       # number of prefetches that is useful and crossed the page (Count)
board.cache_hierarchy.l1dcaches0.prefetcher.power_state.pwrStateResidencyTicks::UNDEFINED    329070710                       # Cumulative time (in ticks) in various power states (Tick)
board.cache_hierarchy.l1dcaches0.tags.tagsInUse   464.098600                       # Average ticks per tags in use ((Tick/Count))
board.cache_hierarchy.l1dcaches0.tags.totalRefs      2249557                       # Total number of references to valid blocks. (Count)
board.cache_hierarchy.l1dcaches0.tags.sampledRefs        40682                       # Sample count of references to valid blocks. (Count)
board.cache_hierarchy.l1dcaches0.tags.avgRefs    55.296126                       # Average number of references to valid blocks. ((Count/Count))
board.cache_hierarchy.l1dcaches0.tags.warmupTick       192040                       # The tick when the warmup percentage was hit. (Tick)
board.cache_hierarchy.l1dcaches0.tags.occupancies::cache_hierarchy.l1dcaches0.prefetcher   104.138607                       # Average occupied blocks per tick, per requestor ((Count/Tick))
board.cache_hierarchy.l1dcaches0.tags.occupancies::processor.cores0.core.data   359.959992                       # Average occupied blocks per tick, per requestor ((Count/Tick))
board.cache_hierarchy.l1dcaches0.tags.avgOccs::cache_hierarchy.l1dcaches0.prefetcher     0.203396                       # Average percentage of cache occupancy ((Ratio/Tick))
board.cache_hierarchy.l1dcaches0.tags.avgOccs::processor.cores0.core.data     0.703047                       # Average percentage of cache occupancy ((Ratio/Tick))
board.cache_hierarchy.l1dcaches0.tags.avgOccs::total     0.906443                       # Average percentage of cache occupancy ((Ratio/Tick))
board.cache_hierarchy.l1dcaches0.tags.occupanciesTaskId::1022          138                       # Occupied blocks per task id (Count)
board.cache_hierarchy.l1dcaches0.tags.occupanciesTaskId::1024          370                       # Occupied blocks per task id (Count)
board.cache_hierarchy.l1dcaches0.tags.ageTaskId_1022::0           61                       # Occupied blocks per task id, per block age (Count)
board.cache_hierarchy.l1dcaches0.tags.ageTaskId_1022::1           77                       # Occupied blocks per task id, per block age (Count)
board.cache_hierarchy.l1dcaches0.tags.ageTaskId_1024::0          209                       # Occupied blocks per task id, per block age (Count)
board.cache_hierarchy.l1dcaches0.tags.ageTaskId_1024::1          160                       # Occupied blocks per task id, per block age (Count)
board.cache_hierarchy.l1dcaches0.tags.ageTaskId_1024::2            1                       # Occupied blocks per task id, per block age (Count)
board.cache_hierarchy.l1dcaches0.tags.ratioOccsTaskId::1022     0.269531                       # Ratio of occupied blocks and all blocks, per task id (Ratio)
board.cache_hierarchy.l1dcaches0.tags.ratioOccsTaskId::1024     0.722656                       # Ratio of occupied blocks and all blocks, per task id (Ratio)
board.cache_hierarchy.l1dcaches0.tags.tagAccesses     18155250                       # Number of tag accesses (Count)
board.cache_hierarchy.l1dcaches0.tags.dataAccesses     18155250                       # Number of data accesses (Count)
board.cache_hierarchy.l1dcaches0.tags.power_state.pwrStateResidencyTicks::UNDEFINED    329070710                       # Cumulative time (in ticks) in various power states (Tick)
board.cache_hierarchy.l1dcaches1.demandHits::processor.cores1.core.data       902259                       # number of demand (read+write) hits (Count)
board.cache_hierarchy.l1dcaches1.demandHits::total       902259                       # number of demand (read+write) hits (Count)
board.cache_hierarchy.l1dcaches1.overallHits::processor.cores1.core.data       902259                       # number of overall hits (Count)
board.cache_hierarchy.l1dcaches1.overallHits::total       902259                       # number of overall hits (Count)
board.cache_hierarchy.l1dcaches1.demandMisses::processor.cores1.core.data        52293                       # number of demand (read+write) misses (Count)
board.cache_hierarchy.l1dcaches1.demandMisses::total        52293                       # number of demand (read+write) misses (Count)
board.cache_hierarchy.l1dcaches1.overallMisses::processor.cores1.core.data        52293                       # number of overall misses (Count)
board.cache_hierarchy.l1dcaches1.overallMisses::total        52293                       # number of overall misses (Count)
board.cache_hierarchy.l1dcaches1.demandMissLatency::processor.cores1.core.data    306615137                       # number of demand (read+write) miss ticks (Tick)
board.cache_hierarchy.l1dcaches1.demandMissLatency::total    306615137                       # number of demand (read+write) miss ticks (Tick)
board.cache_hierarchy.l1dcaches1.overallMissLatency::processor.cores1.core.data    306615137                       # number of overall miss ticks (Tick)
board.cache_hierarchy.l1dcaches1.overallMissLatency::total    306615137                       # number of overall miss ticks (Tick)
board.cache_hierarchy.l1dcaches1.demandAccesses::processor.cores1.core.data       954552                       # number of demand (read+write) accesses (Count)
board.cache_hierarchy.l1dcaches1.demandAccesses::total       954552                       # number of demand (read+write) accesses (Count)
board.cache_hierarchy.l1dcaches1.overallAccesses::processor.cores1.core.data       954552                       # number of overall (read+write) accesses (Count)
board.cache_hierarchy.l1dcaches1.overallAccesses::total       954552                       # number of overall (read+write) accesses (Count)
board.cache_hierarchy.l1dcaches1.demandMissRate::processor.cores1.core.data     0.054783                       # miss rate for demand accesses (Ratio)
board.cache_hierarchy.l1dcaches1.demandMissRate::total     0.054783                       # miss rate for demand accesses (Ratio)
board.cache_hierarchy.l1dcaches1.overallMissRate::processor.cores1.core.data     0.054783                       # miss rate for overall accesses (Ratio)
board.cache_hierarchy.l1dcaches1.overallMissRate::total     0.054783                       # miss rate for overall accesses (Ratio)
board.cache_hierarchy.l1dcaches1.demandAvgMissLatency::processor.cores1.core.data  5863.406900                       # average overall miss latency in ticks ((Tick/Count))
board.cache_hierarchy.l1dcaches1.demandAvgMissLatency::total  5863.406900                       # average overall miss latency in ticks ((Tick/Count))
board.cache_hierarchy.l1dcaches1.overallAvgMissLatency::processor.cores1.core.data  5863.406900                       # average overall miss latency ((Tick/Count))
board.cache_hierarchy.l1dcaches1.overallAvgMissLatency::total  5863.406900                       # average overall miss latency ((Tick/Count))
board.cache_hierarchy.l1dcaches1.blockedCycles::no_mshrs           51                       # number of cycles access was blocked (Cycle)
board.cache_hierarchy.l1dcaches1.blockedCycles::no_targets          364                       # number of cycles access was blocked (Cycle)
board.cache_hierarchy.l1dcaches1.blockedCauses::no_mshrs           11                       # number of times access was blocked (Count)
board.cache_hierarchy.l1dcaches1.blockedCauses::no_targets            1                       # number of times access was blocked (Count)
board.cache_hierarchy.l1dcaches1.avgBlocked::no_mshrs     4.636364                       # average number of cycles each access was blocked ((Cycle/Count))
board.cache_hierarchy.l1dcaches1.avgBlocked::no_targets          364                       # average number of cycles each access was blocked ((Cycle/Count))
board.cache_hierarchy.l1dcaches1.writebacks::writebacks        10729                       # number of writebacks (Count)
board.cache_hierarchy.l1dcaches1.writebacks::total        10729                       # number of writebacks (Count)
board.cache_hierarchy.l1dcaches1.demandMshrHits::processor.cores1.core.data        29086                       # number of demand (read+write) MSHR hits (Count)
board.cache_hierarchy.l1dcaches1.demandMshrHits::total        29086                       # number of demand (read+write) MSHR hits (Count)
board.cache_hierarchy.l1dcaches1.overallMshrHits::processor.cores1.core.data        29086                       # number of overall MSHR hits (Count)
board.cache_hierarchy.l1dcaches1.overallMshrHits::total        29086                       # number of overall MSHR hits (Count)
board.cache_hierarchy.l1dcaches1.demandMshrMisses::processor.cores1.core.data        23207                       # number of demand (read+write) MSHR misses (Count)
board.cache_hierarchy.l1dcaches1.demandMshrMisses::total        23207                       # number of demand (read+write) MSHR misses (Count)
board.cache_hierarchy.l1dcaches1.overallMshrMisses::cache_hierarchy.l1dcaches1.prefetcher        10947                       # number of overall MSHR misses (Count)
board.cache_hierarchy.l1dcaches1.overallMshrMisses::processor.cores1.core.data        23207                       # number of overall MSHR misses (Count)
board.cache_hierarchy.l1dcaches1.overallMshrMisses::total        34154                       # number of overall MSHR misses (Count)
board.cache_hierarchy.l1dcaches1.demandMshrMissLatency::processor.cores1.core.data     75060170                       # number of demand (read+write) MSHR miss ticks (Tick)
board.cache_hierarchy.l1dcaches1.demandMshrMissLatency::total     75060170                       # number of demand (read+write) MSHR miss ticks (Tick)
board.cache_hierarchy.l1dcaches1.overallMshrMissLatency::cache_hierarchy.l1dcaches1.prefetcher     80503037                       # number of overall MSHR miss ticks (Tick)
board.cache_hierarchy.l1dcaches1.overallMshrMissLatency::processor.cores1.core.data     75060170                       # number of overall MSHR miss ticks (Tick)
board.cache_hierarchy.l1dcaches1.overallMshrMissLatency::total    155563207                       # number of overall MSHR miss ticks (Tick)
board.cache_hierarchy.l1dcaches1.demandMshrMissRate::processor.cores1.core.data     0.024312                       # mshr miss ratio for demand accesses (Ratio)
board.cache_hierarchy.l1dcaches1.demandMshrMissRate::total     0.024312                       # mshr miss ratio for demand accesses (Ratio)
board.cache_hierarchy.l1dcaches1.overallMshrMissRate::cache_hierarchy.l1dcaches1.prefetcher          inf                       # mshr miss ratio for overall accesses (Ratio)
board.cache_hierarchy.l1dcaches1.overallMshrMissRate::processor.cores1.core.data     0.024312                       # mshr miss ratio for overall accesses (Ratio)
board.cache_hierarchy.l1dcaches1.overallMshrMissRate::total     0.035780                       # mshr miss ratio for overall accesses (Ratio)
board.cache_hierarchy.l1dcaches1.demandAvgMshrMissLatency::processor.cores1.core.data  3234.376266                       # average overall mshr miss latency ((Tick/Count))
board.cache_hierarchy.l1dcaches1.demandAvgMshrMissLatency::total  3234.376266                       # average overall mshr miss latency ((Tick/Count))
board.cache_hierarchy.l1dcaches1.overallAvgMshrMissLatency::cache_hierarchy.l1dcaches1.prefetcher  7353.890290                       # average overall mshr miss latency ((Tick/Count))
board.cache_hierarchy.l1dcaches1.overallAvgMshrMissLatency::processor.cores1.core.data  3234.376266                       # average overall mshr miss latency ((Tick/Count))
board.cache_hierarchy.l1dcaches1.overallAvgMshrMissLatency::total  4554.758066                       # average overall mshr miss latency ((Tick/Count))
board.cache_hierarchy.l1dcaches1.replacements        21198                       # number of replacements (Count)
board.cache_hierarchy.l1dcaches1.HardPFReq.mshrMisses::cache_hierarchy.l1dcaches1.prefetcher        10947                       # number of HardPFReq MSHR misses (Count)
board.cache_hierarchy.l1dcaches1.HardPFReq.mshrMisses::total        10947                       # number of HardPFReq MSHR misses (Count)
board.cache_hierarchy.l1dcaches1.HardPFReq.mshrMissLatency::cache_hierarchy.l1dcaches1.prefetcher     80503037                       # number of HardPFReq MSHR miss ticks (Tick)
board.cache_hierarchy.l1dcaches1.HardPFReq.mshrMissLatency::total     80503037                       # number of HardPFReq MSHR miss ticks (Tick)
board.cache_hierarchy.l1dcaches1.HardPFReq.mshrMissRate::cache_hierarchy.l1dcaches1.prefetcher          inf                       # mshr miss rate for HardPFReq accesses (Ratio)
board.cache_hierarchy.l1dcaches1.HardPFReq.mshrMissRate::total          inf                       # mshr miss rate for HardPFReq accesses (Ratio)
board.cache_hierarchy.l1dcaches1.HardPFReq.avgMshrMissLatency::cache_hierarchy.l1dcaches1.prefetcher  7353.890290                       # average HardPFReq mshr miss latency ((Tick/Count))
board.cache_hierarchy.l1dcaches1.HardPFReq.avgMshrMissLatency::total  7353.890290                       # average HardPFReq mshr miss latency ((Tick/Count))
board.cache_hierarchy.l1dcaches1.LoadLockedReq.hits::processor.cores1.core.data         2927                       # number of LoadLockedReq hits (Count)
board.cache_hierarchy.l1dcaches1.LoadLockedReq.hits::total         2927                       # number of LoadLockedReq hits (Count)
board.cache_hierarchy.l1dcaches1.LoadLockedReq.misses::processor.cores1.core.data          846                       # number of LoadLockedReq misses (Count)
board.cache_hierarchy.l1dcaches1.LoadLockedReq.misses::total          846                       # number of LoadLockedReq misses (Count)
board.cache_hierarchy.l1dcaches1.LoadLockedReq.missLatency::processor.cores1.core.data       231700                       # number of LoadLockedReq miss ticks (Tick)
board.cache_hierarchy.l1dcaches1.LoadLockedReq.missLatency::total       231700                       # number of LoadLockedReq miss ticks (Tick)
board.cache_hierarchy.l1dcaches1.LoadLockedReq.accesses::processor.cores1.core.data         3773                       # number of LoadLockedReq accesses(hits+misses) (Count)
board.cache_hierarchy.l1dcaches1.LoadLockedReq.accesses::total         3773                       # number of LoadLockedReq accesses(hits+misses) (Count)
board.cache_hierarchy.l1dcaches1.LoadLockedReq.missRate::processor.cores1.core.data     0.224225                       # miss rate for LoadLockedReq accesses (Ratio)
board.cache_hierarchy.l1dcaches1.LoadLockedReq.missRate::total     0.224225                       # miss rate for LoadLockedReq accesses (Ratio)
board.cache_hierarchy.l1dcaches1.LoadLockedReq.avgMissLatency::processor.cores1.core.data   273.877069                       # average LoadLockedReq miss latency ((Tick/Count))
board.cache_hierarchy.l1dcaches1.LoadLockedReq.avgMissLatency::total   273.877069                       # average LoadLockedReq miss latency ((Tick/Count))
board.cache_hierarchy.l1dcaches1.LoadLockedReq.mshrHits::processor.cores1.core.data          557                       # number of LoadLockedReq MSHR hits (Count)
board.cache_hierarchy.l1dcaches1.LoadLockedReq.mshrHits::total          557                       # number of LoadLockedReq MSHR hits (Count)
board.cache_hierarchy.l1dcaches1.LoadLockedReq.mshrMisses::processor.cores1.core.data          289                       # number of LoadLockedReq MSHR misses (Count)
board.cache_hierarchy.l1dcaches1.LoadLockedReq.mshrMisses::total          289                       # number of LoadLockedReq MSHR misses (Count)
board.cache_hierarchy.l1dcaches1.LoadLockedReq.mshrMissLatency::processor.cores1.core.data        80450                       # number of LoadLockedReq MSHR miss ticks (Tick)
board.cache_hierarchy.l1dcaches1.LoadLockedReq.mshrMissLatency::total        80450                       # number of LoadLockedReq MSHR miss ticks (Tick)
board.cache_hierarchy.l1dcaches1.LoadLockedReq.mshrMissRate::processor.cores1.core.data     0.076597                       # mshr miss rate for LoadLockedReq accesses (Ratio)
board.cache_hierarchy.l1dcaches1.LoadLockedReq.mshrMissRate::total     0.076597                       # mshr miss rate for LoadLockedReq accesses (Ratio)
board.cache_hierarchy.l1dcaches1.LoadLockedReq.avgMshrMissLatency::processor.cores1.core.data   278.373702                       # average LoadLockedReq mshr miss latency ((Tick/Count))
board.cache_hierarchy.l1dcaches1.LoadLockedReq.avgMshrMissLatency::total   278.373702                       # average LoadLockedReq mshr miss latency ((Tick/Count))
board.cache_hierarchy.l1dcaches1.ReadReq.hits::processor.cores1.core.data       730583                       # number of ReadReq hits (Count)
board.cache_hierarchy.l1dcaches1.ReadReq.hits::total       730583                       # number of ReadReq hits (Count)
board.cache_hierarchy.l1dcaches1.ReadReq.misses::processor.cores1.core.data        30166                       # number of ReadReq misses (Count)
board.cache_hierarchy.l1dcaches1.ReadReq.misses::total        30166                       # number of ReadReq misses (Count)
board.cache_hierarchy.l1dcaches1.ReadReq.missLatency::processor.cores1.core.data      5587650                       # number of ReadReq miss ticks (Tick)
board.cache_hierarchy.l1dcaches1.ReadReq.missLatency::total      5587650                       # number of ReadReq miss ticks (Tick)
board.cache_hierarchy.l1dcaches1.ReadReq.accesses::processor.cores1.core.data       760749                       # number of ReadReq accesses(hits+misses) (Count)
board.cache_hierarchy.l1dcaches1.ReadReq.accesses::total       760749                       # number of ReadReq accesses(hits+misses) (Count)
board.cache_hierarchy.l1dcaches1.ReadReq.missRate::processor.cores1.core.data     0.039653                       # miss rate for ReadReq accesses (Ratio)
board.cache_hierarchy.l1dcaches1.ReadReq.missRate::total     0.039653                       # miss rate for ReadReq accesses (Ratio)
board.cache_hierarchy.l1dcaches1.ReadReq.avgMissLatency::processor.cores1.core.data   185.230060                       # average ReadReq miss latency ((Tick/Count))
board.cache_hierarchy.l1dcaches1.ReadReq.avgMissLatency::total   185.230060                       # average ReadReq miss latency ((Tick/Count))
board.cache_hierarchy.l1dcaches1.ReadReq.mshrHits::processor.cores1.core.data        19064                       # number of ReadReq MSHR hits (Count)
board.cache_hierarchy.l1dcaches1.ReadReq.mshrHits::total        19064                       # number of ReadReq MSHR hits (Count)
board.cache_hierarchy.l1dcaches1.ReadReq.mshrMisses::processor.cores1.core.data        11102                       # number of ReadReq MSHR misses (Count)
board.cache_hierarchy.l1dcaches1.ReadReq.mshrMisses::total        11102                       # number of ReadReq MSHR misses (Count)
board.cache_hierarchy.l1dcaches1.ReadReq.mshrMissLatency::processor.cores1.core.data      2154760                       # number of ReadReq MSHR miss ticks (Tick)
board.cache_hierarchy.l1dcaches1.ReadReq.mshrMissLatency::total      2154760                       # number of ReadReq MSHR miss ticks (Tick)
board.cache_hierarchy.l1dcaches1.ReadReq.mshrMissRate::processor.cores1.core.data     0.014594                       # mshr miss rate for ReadReq accesses (Ratio)
board.cache_hierarchy.l1dcaches1.ReadReq.mshrMissRate::total     0.014594                       # mshr miss rate for ReadReq accesses (Ratio)
board.cache_hierarchy.l1dcaches1.ReadReq.avgMshrMissLatency::processor.cores1.core.data   194.087552                       # average ReadReq mshr miss latency ((Tick/Count))
board.cache_hierarchy.l1dcaches1.ReadReq.avgMshrMissLatency::total   194.087552                       # average ReadReq mshr miss latency ((Tick/Count))
board.cache_hierarchy.l1dcaches1.StoreCondFailReq.missLatency::processor.cores1.core.data       120640                       # number of StoreCondFailReq miss ticks (Tick)
board.cache_hierarchy.l1dcaches1.StoreCondFailReq.missLatency::total       120640                       # number of StoreCondFailReq miss ticks (Tick)
board.cache_hierarchy.l1dcaches1.StoreCondFailReq.avgMissLatency::processor.cores1.core.data          inf                       # average StoreCondFailReq miss latency ((Tick/Count))
board.cache_hierarchy.l1dcaches1.StoreCondFailReq.avgMissLatency::total          inf                       # average StoreCondFailReq miss latency ((Tick/Count))
board.cache_hierarchy.l1dcaches1.StoreCondFailReq.mshrMissLatency::processor.cores1.core.data       117980                       # number of StoreCondFailReq MSHR miss ticks (Tick)
board.cache_hierarchy.l1dcaches1.StoreCondFailReq.mshrMissLatency::total       117980                       # number of StoreCondFailReq MSHR miss ticks (Tick)
board.cache_hierarchy.l1dcaches1.StoreCondFailReq.avgMshrMissLatency::processor.cores1.core.data          inf                       # average StoreCondFailReq mshr miss latency ((Tick/Count))
board.cache_hierarchy.l1dcaches1.StoreCondFailReq.avgMshrMissLatency::total          inf                       # average StoreCondFailReq mshr miss latency ((Tick/Count))
board.cache_hierarchy.l1dcaches1.StoreCondReq.hits::processor.cores1.core.data         1436                       # number of StoreCondReq hits (Count)
board.cache_hierarchy.l1dcaches1.StoreCondReq.hits::total         1436                       # number of StoreCondReq hits (Count)
board.cache_hierarchy.l1dcaches1.StoreCondReq.misses::processor.cores1.core.data         1451                       # number of StoreCondReq misses (Count)
board.cache_hierarchy.l1dcaches1.StoreCondReq.misses::total         1451                       # number of StoreCondReq misses (Count)
board.cache_hierarchy.l1dcaches1.StoreCondReq.missLatency::processor.cores1.core.data       365190                       # number of StoreCondReq miss ticks (Tick)
board.cache_hierarchy.l1dcaches1.StoreCondReq.missLatency::total       365190                       # number of StoreCondReq miss ticks (Tick)
board.cache_hierarchy.l1dcaches1.StoreCondReq.accesses::processor.cores1.core.data         2887                       # number of StoreCondReq accesses(hits+misses) (Count)
board.cache_hierarchy.l1dcaches1.StoreCondReq.accesses::total         2887                       # number of StoreCondReq accesses(hits+misses) (Count)
board.cache_hierarchy.l1dcaches1.StoreCondReq.missRate::processor.cores1.core.data     0.502598                       # miss rate for StoreCondReq accesses (Ratio)
board.cache_hierarchy.l1dcaches1.StoreCondReq.missRate::total     0.502598                       # miss rate for StoreCondReq accesses (Ratio)
board.cache_hierarchy.l1dcaches1.StoreCondReq.avgMissLatency::processor.cores1.core.data   251.681599                       # average StoreCondReq miss latency ((Tick/Count))
board.cache_hierarchy.l1dcaches1.StoreCondReq.avgMissLatency::total   251.681599                       # average StoreCondReq miss latency ((Tick/Count))
board.cache_hierarchy.l1dcaches1.StoreCondReq.mshrMisses::processor.cores1.core.data         1451                       # number of StoreCondReq MSHR misses (Count)
board.cache_hierarchy.l1dcaches1.StoreCondReq.mshrMisses::total         1451                       # number of StoreCondReq MSHR misses (Count)
board.cache_hierarchy.l1dcaches1.StoreCondReq.mshrMissLatency::processor.cores1.core.data       353340                       # number of StoreCondReq MSHR miss ticks (Tick)
board.cache_hierarchy.l1dcaches1.StoreCondReq.mshrMissLatency::total       353340                       # number of StoreCondReq MSHR miss ticks (Tick)
board.cache_hierarchy.l1dcaches1.StoreCondReq.mshrMissRate::processor.cores1.core.data     0.502598                       # mshr miss rate for StoreCondReq accesses (Ratio)
board.cache_hierarchy.l1dcaches1.StoreCondReq.mshrMissRate::total     0.502598                       # mshr miss rate for StoreCondReq accesses (Ratio)
board.cache_hierarchy.l1dcaches1.StoreCondReq.avgMshrMissLatency::processor.cores1.core.data   243.514817                       # average StoreCondReq mshr miss latency ((Tick/Count))
board.cache_hierarchy.l1dcaches1.StoreCondReq.avgMshrMissLatency::total   243.514817                       # average StoreCondReq mshr miss latency ((Tick/Count))
board.cache_hierarchy.l1dcaches1.SwapReq.hits::processor.cores1.core.data        17269                       # number of SwapReq hits (Count)
board.cache_hierarchy.l1dcaches1.SwapReq.hits::total        17269                       # number of SwapReq hits (Count)
board.cache_hierarchy.l1dcaches1.SwapReq.misses::processor.cores1.core.data        16480                       # number of SwapReq misses (Count)
board.cache_hierarchy.l1dcaches1.SwapReq.misses::total        16480                       # number of SwapReq misses (Count)
board.cache_hierarchy.l1dcaches1.SwapReq.missLatency::processor.cores1.core.data      4620640                       # number of SwapReq miss ticks (Tick)
board.cache_hierarchy.l1dcaches1.SwapReq.missLatency::total      4620640                       # number of SwapReq miss ticks (Tick)
board.cache_hierarchy.l1dcaches1.SwapReq.accesses::processor.cores1.core.data        33749                       # number of SwapReq accesses(hits+misses) (Count)
board.cache_hierarchy.l1dcaches1.SwapReq.accesses::total        33749                       # number of SwapReq accesses(hits+misses) (Count)
board.cache_hierarchy.l1dcaches1.SwapReq.missRate::processor.cores1.core.data     0.488311                       # miss rate for SwapReq accesses (Ratio)
board.cache_hierarchy.l1dcaches1.SwapReq.missRate::total     0.488311                       # miss rate for SwapReq accesses (Ratio)
board.cache_hierarchy.l1dcaches1.SwapReq.avgMissLatency::processor.cores1.core.data   280.378641                       # average SwapReq miss latency ((Tick/Count))
board.cache_hierarchy.l1dcaches1.SwapReq.avgMissLatency::total   280.378641                       # average SwapReq miss latency ((Tick/Count))
board.cache_hierarchy.l1dcaches1.SwapReq.mshrHits::processor.cores1.core.data            1                       # number of SwapReq MSHR hits (Count)
board.cache_hierarchy.l1dcaches1.SwapReq.mshrHits::total            1                       # number of SwapReq MSHR hits (Count)
board.cache_hierarchy.l1dcaches1.SwapReq.mshrMisses::processor.cores1.core.data        16479                       # number of SwapReq MSHR misses (Count)
board.cache_hierarchy.l1dcaches1.SwapReq.mshrMisses::total        16479                       # number of SwapReq MSHR misses (Count)
board.cache_hierarchy.l1dcaches1.SwapReq.mshrMissLatency::processor.cores1.core.data      4455840                       # number of SwapReq MSHR miss ticks (Tick)
board.cache_hierarchy.l1dcaches1.SwapReq.mshrMissLatency::total      4455840                       # number of SwapReq MSHR miss ticks (Tick)
board.cache_hierarchy.l1dcaches1.SwapReq.mshrMissRate::processor.cores1.core.data     0.488281                       # mshr miss rate for SwapReq accesses (Ratio)
board.cache_hierarchy.l1dcaches1.SwapReq.mshrMissRate::total     0.488281                       # mshr miss rate for SwapReq accesses (Ratio)
board.cache_hierarchy.l1dcaches1.SwapReq.avgMshrMissLatency::processor.cores1.core.data   270.395048                       # average SwapReq mshr miss latency ((Tick/Count))
board.cache_hierarchy.l1dcaches1.SwapReq.avgMshrMissLatency::total   270.395048                       # average SwapReq mshr miss latency ((Tick/Count))
board.cache_hierarchy.l1dcaches1.WriteReq.hits::processor.cores1.core.data       171676                       # number of WriteReq hits (Count)
board.cache_hierarchy.l1dcaches1.WriteReq.hits::total       171676                       # number of WriteReq hits (Count)
board.cache_hierarchy.l1dcaches1.WriteReq.misses::processor.cores1.core.data        22127                       # number of WriteReq misses (Count)
board.cache_hierarchy.l1dcaches1.WriteReq.misses::total        22127                       # number of WriteReq misses (Count)
board.cache_hierarchy.l1dcaches1.WriteReq.missLatency::processor.cores1.core.data    301027487                       # number of WriteReq miss ticks (Tick)
board.cache_hierarchy.l1dcaches1.WriteReq.missLatency::total    301027487                       # number of WriteReq miss ticks (Tick)
board.cache_hierarchy.l1dcaches1.WriteReq.accesses::processor.cores1.core.data       193803                       # number of WriteReq accesses(hits+misses) (Count)
board.cache_hierarchy.l1dcaches1.WriteReq.accesses::total       193803                       # number of WriteReq accesses(hits+misses) (Count)
board.cache_hierarchy.l1dcaches1.WriteReq.missRate::processor.cores1.core.data     0.114173                       # miss rate for WriteReq accesses (Ratio)
board.cache_hierarchy.l1dcaches1.WriteReq.missRate::total     0.114173                       # miss rate for WriteReq accesses (Ratio)
board.cache_hierarchy.l1dcaches1.WriteReq.avgMissLatency::processor.cores1.core.data 13604.532336                       # average WriteReq miss latency ((Tick/Count))
board.cache_hierarchy.l1dcaches1.WriteReq.avgMissLatency::total 13604.532336                       # average WriteReq miss latency ((Tick/Count))
board.cache_hierarchy.l1dcaches1.WriteReq.mshrHits::processor.cores1.core.data        10022                       # number of WriteReq MSHR hits (Count)
board.cache_hierarchy.l1dcaches1.WriteReq.mshrHits::total        10022                       # number of WriteReq MSHR hits (Count)
board.cache_hierarchy.l1dcaches1.WriteReq.mshrMisses::processor.cores1.core.data        12105                       # number of WriteReq MSHR misses (Count)
board.cache_hierarchy.l1dcaches1.WriteReq.mshrMisses::total        12105                       # number of WriteReq MSHR misses (Count)
board.cache_hierarchy.l1dcaches1.WriteReq.mshrMissLatency::processor.cores1.core.data     72905410                       # number of WriteReq MSHR miss ticks (Tick)
board.cache_hierarchy.l1dcaches1.WriteReq.mshrMissLatency::total     72905410                       # number of WriteReq MSHR miss ticks (Tick)
board.cache_hierarchy.l1dcaches1.WriteReq.mshrMissRate::processor.cores1.core.data     0.062460                       # mshr miss rate for WriteReq accesses (Ratio)
board.cache_hierarchy.l1dcaches1.WriteReq.mshrMissRate::total     0.062460                       # mshr miss rate for WriteReq accesses (Ratio)
board.cache_hierarchy.l1dcaches1.WriteReq.avgMshrMissLatency::processor.cores1.core.data  6022.751755                       # average WriteReq mshr miss latency ((Tick/Count))
board.cache_hierarchy.l1dcaches1.WriteReq.avgMshrMissLatency::total  6022.751755                       # average WriteReq mshr miss latency ((Tick/Count))
board.cache_hierarchy.l1dcaches1.power_state.pwrStateResidencyTicks::UNDEFINED    329070710                       # Cumulative time (in ticks) in various power states (Tick)
board.cache_hierarchy.l1dcaches1.prefetcher.demandMshrMisses        23207                       # demands not covered by prefetchs (Count)
board.cache_hierarchy.l1dcaches1.prefetcher.pfIssued        44772                       # number of hwpf issued (Count)
board.cache_hierarchy.l1dcaches1.prefetcher.pfUnused         3874                       # number of HardPF blocks evicted w/o reference (Count)
board.cache_hierarchy.l1dcaches1.prefetcher.pfUseful         6789                       # number of useful prefetch (Count)
board.cache_hierarchy.l1dcaches1.prefetcher.pfUsefulButMiss          358                       # number of hit on prefetch but cache block is not in an usable state (Count)
board.cache_hierarchy.l1dcaches1.prefetcher.accuracy     0.151635                       # accuracy of the prefetcher (Count)
board.cache_hierarchy.l1dcaches1.prefetcher.coverage     0.226330                       # coverage brought by this prefetcher (Count)
board.cache_hierarchy.l1dcaches1.prefetcher.pfHitInCache        17800                       # number of prefetches hitting in cache (Count)
board.cache_hierarchy.l1dcaches1.prefetcher.pfHitInMSHR        16025                       # number of prefetches hitting in a MSHR (Count)
board.cache_hierarchy.l1dcaches1.prefetcher.pfHitInWB            0                       # number of prefetches hit in the Write Buffer (Count)
board.cache_hierarchy.l1dcaches1.prefetcher.pfLate        33825                       # number of late prefetches (hitting in cache, MSHR or WB) (Count)
board.cache_hierarchy.l1dcaches1.prefetcher.pfIdentified        55468                       # number of prefetch candidates identified (Count)
board.cache_hierarchy.l1dcaches1.prefetcher.pfBufferHit         9513                       # number of redundant prefetches already in prefetch queue (Count)
board.cache_hierarchy.l1dcaches1.prefetcher.pfInCache            0                       # number of redundant prefetches already in cache/mshr dropped (Count)
board.cache_hierarchy.l1dcaches1.prefetcher.pfRemovedDemand           60                       # number of prefetches dropped due to a demand for the same address (Count)
board.cache_hierarchy.l1dcaches1.prefetcher.pfRemovedFull            0                       # number of prefetches dropped due to prefetch queue size (Count)
board.cache_hierarchy.l1dcaches1.prefetcher.pfSpanPage         5496                       # number of prefetches that crossed the page (Count)
board.cache_hierarchy.l1dcaches1.prefetcher.pfUsefulSpanPage           64                       # number of prefetches that is useful and crossed the page (Count)
board.cache_hierarchy.l1dcaches1.prefetcher.power_state.pwrStateResidencyTicks::UNDEFINED    329070710                       # Cumulative time (in ticks) in various power states (Tick)
board.cache_hierarchy.l1dcaches1.tags.tagsInUse   249.816274                       # Average ticks per tags in use ((Tick/Count))
board.cache_hierarchy.l1dcaches1.tags.totalRefs       986367                       # Total number of references to valid blocks. (Count)
board.cache_hierarchy.l1dcaches1.tags.sampledRefs        48042                       # Sample count of references to valid blocks. (Count)
board.cache_hierarchy.l1dcaches1.tags.avgRefs    20.531348                       # Average number of references to valid blocks. ((Count/Count))
board.cache_hierarchy.l1dcaches1.tags.warmupTick     56746050                       # The tick when the warmup percentage was hit. (Tick)
board.cache_hierarchy.l1dcaches1.tags.occupancies::cache_hierarchy.l1dcaches1.prefetcher    91.261619                       # Average occupied blocks per tick, per requestor ((Count/Tick))
board.cache_hierarchy.l1dcaches1.tags.occupancies::processor.cores1.core.data   158.554655                       # Average occupied blocks per tick, per requestor ((Count/Tick))
board.cache_hierarchy.l1dcaches1.tags.avgOccs::cache_hierarchy.l1dcaches1.prefetcher     0.178245                       # Average percentage of cache occupancy ((Ratio/Tick))
board.cache_hierarchy.l1dcaches1.tags.avgOccs::processor.cores1.core.data     0.309677                       # Average percentage of cache occupancy ((Ratio/Tick))
board.cache_hierarchy.l1dcaches1.tags.avgOccs::total     0.487922                       # Average percentage of cache occupancy ((Ratio/Tick))
board.cache_hierarchy.l1dcaches1.tags.occupanciesTaskId::1022          148                       # Occupied blocks per task id (Count)
board.cache_hierarchy.l1dcaches1.tags.occupanciesTaskId::1024          345                       # Occupied blocks per task id (Count)
board.cache_hierarchy.l1dcaches1.tags.ageTaskId_1022::0          147                       # Occupied blocks per task id, per block age (Count)
board.cache_hierarchy.l1dcaches1.tags.ageTaskId_1022::1            1                       # Occupied blocks per task id, per block age (Count)
board.cache_hierarchy.l1dcaches1.tags.ageTaskId_1024::0          345                       # Occupied blocks per task id, per block age (Count)
board.cache_hierarchy.l1dcaches1.tags.ratioOccsTaskId::1022     0.289062                       # Ratio of occupied blocks and all blocks, per task id (Ratio)
board.cache_hierarchy.l1dcaches1.tags.ratioOccsTaskId::1024     0.673828                       # Ratio of occupied blocks and all blocks, per task id (Ratio)
board.cache_hierarchy.l1dcaches1.tags.tagAccesses      8007730                       # Number of tag accesses (Count)
board.cache_hierarchy.l1dcaches1.tags.dataAccesses      8007730                       # Number of data accesses (Count)
board.cache_hierarchy.l1dcaches1.tags.power_state.pwrStateResidencyTicks::UNDEFINED    329070710                       # Cumulative time (in ticks) in various power states (Tick)
board.cache_hierarchy.l1icaches0.demandHits::processor.cores0.core.inst      2404017                       # number of demand (read+write) hits (Count)
board.cache_hierarchy.l1icaches0.demandHits::total      2404017                       # number of demand (read+write) hits (Count)
board.cache_hierarchy.l1icaches0.overallHits::processor.cores0.core.inst      2404017                       # number of overall hits (Count)
board.cache_hierarchy.l1icaches0.overallHits::total      2404017                       # number of overall hits (Count)
board.cache_hierarchy.l1icaches0.demandMisses::processor.cores0.core.inst         4336                       # number of demand (read+write) misses (Count)
board.cache_hierarchy.l1icaches0.demandMisses::total         4336                       # number of demand (read+write) misses (Count)
board.cache_hierarchy.l1icaches0.overallMisses::processor.cores0.core.inst         4336                       # number of overall misses (Count)
board.cache_hierarchy.l1icaches0.overallMisses::total         4336                       # number of overall misses (Count)
board.cache_hierarchy.l1icaches0.demandMissLatency::processor.cores0.core.inst    134347810                       # number of demand (read+write) miss ticks (Tick)
board.cache_hierarchy.l1icaches0.demandMissLatency::total    134347810                       # number of demand (read+write) miss ticks (Tick)
board.cache_hierarchy.l1icaches0.overallMissLatency::processor.cores0.core.inst    134347810                       # number of overall miss ticks (Tick)
board.cache_hierarchy.l1icaches0.overallMissLatency::total    134347810                       # number of overall miss ticks (Tick)
board.cache_hierarchy.l1icaches0.demandAccesses::processor.cores0.core.inst      2408353                       # number of demand (read+write) accesses (Count)
board.cache_hierarchy.l1icaches0.demandAccesses::total      2408353                       # number of demand (read+write) accesses (Count)
[...]
board.processor.cores1.core.decode.squashedInsts        55896                       # Number of squashed instructions handled by decode (Count)
board.processor.cores1.core.executeStats0.numInsts      3911305                       # Number of executed instructions (Count)
board.processor.cores1.core.executeStats0.numNop            0                       # Number of nop insts executed (Count)
board.processor.cores1.core.executeStats0.numBranches       812548                       # Number of branches executed (Count)
board.processor.cores1.core.executeStats0.numLoadInsts      1152245                       # Number of load instructions executed (Count)
board.processor.cores1.core.executeStats0.numStoreInsts       306014                       # Number of stores executed (Count)
board.processor.cores1.core.executeStats0.instRate     0.314828                       # Inst execution rate ((Count/Cycle))
board.processor.cores1.core.executeStats0.numFpRegReads           12                       # Number of times the floating registers were read (Count)
board.processor.cores1.core.executeStats0.numFpRegWrites            0                       # Number of times the floating registers were written (Count)
board.processor.cores1.core.executeStats0.numIntRegReads      4697616                       # Number of times the integer registers were read (Count)
board.processor.cores1.core.executeStats0.numIntRegWrites      2344923                       # Number of times the integer registers were written (Count)
board.processor.cores1.core.executeStats0.numMemRefs      1458259                       # Number of memory refs (Count)
board.processor.cores1.core.executeStats0.numMiscRegReads          492                       # Number of times the Misc registers were read (Count)
board.processor.cores1.core.executeStats0.numVecAluAccesses            0                       # Number of vector alu accesses (Count)
board.processor.cores1.core.executeStats0.numDiscardedOps            0                       # Number of ops (including micro ops) which were discarded before commit (Count)
board.processor.cores1.core.fetch.predictedBranches       834220                       # Number of branches that fetch has predicted taken (Count)
board.processor.cores1.core.fetch.cycles     11306016                       # Number of cycles fetch has run and was not squashing or blocked (Cycle)
board.processor.cores1.core.fetch.squashCycles       250380                       # Number of cycles fetch has spent squashing (Cycle)
board.processor.cores1.core.fetch.miscStallCycles            2                       # Number of cycles fetch has spent waiting on interrupts, or bad addresses, or out of MSHRs (Cycle)
board.processor.cores1.core.fetch.icacheWaitRetryStallCycles           42                       # Number of stall cycles due to full MSHR (Cycle)
board.processor.cores1.core.fetch.cacheLines       321323                       # Number of cache lines fetched (Count)
board.processor.cores1.core.fetch.icacheSquashes        13974                       # Number of outstanding Icache misses that were squashed (Count)
board.processor.cores1.core.fetch.nisnDist::samples     11817839                       # Number of instructions fetched each cycle (Total) (Count)
board.processor.cores1.core.fetch.nisnDist::mean     0.546068                       # Number of instructions fetched each cycle (Total) (Count)
board.processor.cores1.core.fetch.nisnDist::stdev     1.292326                       # Number of instructions fetched each cycle (Total) (Count)
board.processor.cores1.core.fetch.nisnDist::underflows            0      0.00%      0.00% # Number of instructions fetched each cycle (Total) (Count)
board.processor.cores1.core.fetch.nisnDist::0      9761649     82.60%     82.60% # Number of instructions fetched each cycle (Total) (Count)
board.processor.cores1.core.fetch.nisnDist::1       401565      3.40%     86.00% # Number of instructions fetched each cycle (Total) (Count)
board.processor.cores1.core.fetch.nisnDist::2       176248      1.49%     87.49% # Number of instructions fetched each cycle (Total) (Count)
board.processor.cores1.core.fetch.nisnDist::3       214226      1.81%     89.30% # Number of instructions fetched each cycle (Total) (Count)
board.processor.cores1.core.fetch.nisnDist::4      1264151     10.70%    100.00% # Number of instructions fetched each cycle (Total) (Count)
board.processor.cores1.core.fetch.nisnDist::overflows            0      0.00%    100.00% # Number of instructions fetched each cycle (Total) (Count)
board.processor.cores1.core.fetch.nisnDist::min_value            0                       # Number of instructions fetched each cycle (Total) (Count)
board.processor.cores1.core.fetch.nisnDist::max_value            4                       # Number of instructions fetched each cycle (Total) (Count)
board.processor.cores1.core.fetch.nisnDist::total     11817839                       # Number of instructions fetched each cycle (Total) (Count)
board.processor.cores1.core.fetchStats0.numInsts      6404974                       # Number of instructions fetched (thread level) (Count)
board.processor.cores1.core.fetchStats0.numOps            0                       # Number of ops (including micro ops) fetched (thread level) (Count)
board.processor.cores1.core.fetchStats0.fetchRate     0.515548                       # Number of inst fetches per cycle ((Count/Cycle))
board.processor.cores1.core.fetchStats0.numBranches      1632811                       # Number of branches fetched (Count)
board.processor.cores1.core.fetchStats0.branchRate     0.131428                       # Number of branch fetches per cycle (Ratio)
board.processor.cores1.core.fetchStats0.icacheStallCycles       386589                       # ICache total stall cycles (Cycle)
board.processor.cores1.core.fetchStats0.numFetchSuspends            0                       # Number of times Execute suspended instruction fetching (Count)
board.processor.cores1.core.iew.idleCycles            0                       # Number of cycles IEW is idle (Cycle)
board.processor.cores1.core.iew.squashCycles       107614                       # Number of cycles IEW is squashing (Cycle)
board.processor.cores1.core.iew.blockCycles      3765027                       # Number of cycles IEW is blocking (Cycle)
board.processor.cores1.core.iew.unblockCycles      2365852                       # Number of cycles IEW is unblocking (Cycle)
board.processor.cores1.core.iew.dispatchedInsts      4483180                       # Number of instructions dispatched to IQ (Count)
board.processor.cores1.core.iew.dispSquashedInsts         9568                       # Number of squashed instructions skipped by dispatch (Count)
board.processor.cores1.core.iew.dispLoadInsts      1065747                       # Number of dispatched load instructions (Count)
board.processor.cores1.core.iew.dispStoreInsts       423563                       # Number of dispatched store instructions (Count)
board.processor.cores1.core.iew.dispNonSpecInsts        39262                       # Number of dispatched non-speculative instructions (Count)
board.processor.cores1.core.iew.iqFullEvents        24740                       # Number of times the IQ has become full, causing a stall (Count)
board.processor.cores1.core.iew.lsqFullEvents      2335277                       # Number of times the LSQ has become full, causing a stall (Count)
board.processor.cores1.core.iew.memOrderViolationEvents          253                       # Number of memory order violations (Count)
board.processor.cores1.core.iew.predictedTakenIncorrect        34096                       # Number of branches that were predicted taken incorrectly (Count)
board.processor.cores1.core.iew.predictedNotTakenIncorrect        89872                       # Number of branches that were predicted not taken incorrectly (Count)
board.processor.cores1.core.iew.branchMispredicts       123968                       # Number of branch mispredicts detected at execute (Count)
board.processor.cores1.core.iew.instsToCommit      3506284                       # Cumulative count of insts sent to commit (Count)
board.processor.cores1.core.iew.writebackCount      3463756                       # Cumulative count of insts written-back (Count)
board.processor.cores1.core.iew.producerInst      1699057                       # Number of instructions producing a value (Count)
board.processor.cores1.core.iew.consumerInst      2603522                       # Number of instructions consuming a value (Count)
board.processor.cores1.core.iew.wbRate       0.278804                       # Insts written-back per cycle ((Count/Cycle))
board.processor.cores1.core.iew.wbFanout     0.652599                       # Average fanout of values written-back ((Count/Count))
board.processor.cores1.core.lsq0.forwLoads        34368                       # Number of loads that had data forwarded from stores (Count)
board.processor.cores1.core.lsq0.squashedLoads       446221                       # Number of loads squashed (Count)
board.processor.cores1.core.lsq0.ignoredResponses          146                       # Number of memory responses ignored because the instruction is squashed (Count)
board.processor.cores1.core.lsq0.memOrderViolation          253                       # Number of memory ordering violations (Count)
board.processor.cores1.core.lsq0.squashedStores       192958                       # Number of stores squashed (Count)
board.processor.cores1.core.lsq0.rescheduledLoads           30                       # Number of loads that were rescheduled (Count)
board.processor.cores1.core.lsq0.blockedByCache            9                       # Number of times an access to memory failed due to the cache being blocked (Count)
board.processor.cores1.core.lsq0.loadToUse::samples       619526                       # Distribution of cycle latency between the first time a load is issued and its completion (Unspecified)
board.processor.cores1.core.lsq0.loadToUse::mean     4.532220                       # Distribution of cycle latency between the first time a load is issued and its completion (Unspecified)
board.processor.cores1.core.lsq0.loadToUse::stdev    17.489974                       # Distribution of cycle latency between the first time a load is issued and its completion (Unspecified)
board.processor.cores1.core.lsq0.loadToUse::0-9       598998     96.69%     96.69% # Distribution of cycle latency between the first time a load is issued and its completion (Unspecified)
board.processor.cores1.core.lsq0.loadToUse::10-19        12217      1.97%     98.66% # Distribution of cycle latency between the first time a load is issued and its completion (Unspecified)
board.processor.cores1.core.lsq0.loadToUse::20-29         5897      0.95%     99.61% # Distribution of cycle latency between the first time a load is issued and its completion (Unspecified)
board.processor.cores1.core.lsq0.loadToUse::30-39         2339      0.38%     99.99% # Distribution of cycle latency between the first time a load is issued and its completion (Unspecified)
board.processor.cores1.core.lsq0.loadToUse::40-49           22      0.00%     99.99% # Distribution of cycle latency between the first time a load is issued and its completion (Unspecified)
board.processor.cores1.core.lsq0.loadToUse::50-59            7      0.00%     99.99% # Distribution of cycle latency between the first time a load is issued and its completion (Unspecified)
board.processor.cores1.core.lsq0.loadToUse::overflows           46      0.01%    100.00% # Distribution of cycle latency between the first time a load is issued and its completion (Unspecified)
board.processor.cores1.core.lsq0.loadToUse::min_value            2                       # Distribution of cycle latency between the first time a load is issued and its completion (Unspecified)
board.processor.cores1.core.lsq0.loadToUse::max_value         6329                       # Distribution of cycle latency between the first time a load is issued and its completion (Unspecified)
board.processor.cores1.core.lsq0.loadToUse::total       619526                       # Distribution of cycle latency between the first time a load is issued and its completion (Unspecified)
board.processor.cores1.core.mmu.dtb.readHits            0                       # read hits (Count)
board.processor.cores1.core.mmu.dtb.readMisses            0                       # read misses (Count)
board.processor.cores1.core.mmu.dtb.readAccesses            0                       # read accesses (Count)
board.processor.cores1.core.mmu.dtb.writeHits            0                       # write hits (Count)
board.processor.cores1.core.mmu.dtb.writeMisses            0                       # write misses (Count)
board.processor.cores1.core.mmu.dtb.writeAccesses            0                       # write accesses (Count)
board.processor.cores1.core.mmu.dtb.hits            0                       # Total TLB (read and write) hits (Count)
board.processor.cores1.core.mmu.dtb.misses            0                       # Total TLB (read and write) misses (Count)
board.processor.cores1.core.mmu.dtb.accesses            0                       # Total TLB (read and write) accesses (Count)
board.processor.cores1.core.mmu.dtb.walker.power_state.pwrStateResidencyTicks::UNDEFINED    329070710                       # Cumulative time (in ticks) in various power states (Tick)
board.processor.cores1.core.mmu.itb.readHits            0                       # read hits (Count)
board.processor.cores1.core.mmu.itb.readMisses            0                       # read misses (Count)
board.processor.cores1.core.mmu.itb.readAccesses            0                       # read accesses (Count)
board.processor.cores1.core.mmu.itb.writeHits            0                       # write hits (Count)
board.processor.cores1.core.mmu.itb.writeMisses            0                       # write misses (Count)
board.processor.cores1.core.mmu.itb.writeAccesses            0                       # write accesses (Count)
board.processor.cores1.core.mmu.itb.hits            0                       # Total TLB (read and write) hits (Count)
board.processor.cores1.core.mmu.itb.misses            0                       # Total TLB (read and write) misses (Count)
board.processor.cores1.core.mmu.itb.accesses            0                       # Total TLB (read and write) accesses (Count)
board.processor.cores1.core.mmu.itb.walker.power_state.pwrStateResidencyTicks::UNDEFINED    329070710                       # Cumulative time (in ticks) in various power states (Tick)
board.processor.cores1.core.power_state.numTransitions          441                       # Number of power state transitions (Count)
board.processor.cores1.core.power_state.ticksClkGated::samples          221                       # Distribution of time spent in the clock gated state (Tick)
board.processor.cores1.core.power_state.ticksClkGated::mean 670097.104072                       # Distribution of time spent in the clock gated state (Tick)
board.processor.cores1.core.power_state.ticksClkGated::stdev 8393316.579108                       # Distribution of time spent in the clock gated state (Tick)
board.processor.cores1.core.power_state.ticksClkGated::underflows           17      7.69%      7.69% # Distribution of time spent in the clock gated state (Tick)
board.processor.cores1.core.power_state.ticksClkGated::1000-5e+10          204     92.31%    100.00% # Distribution of time spent in the clock gated state (Tick)
board.processor.cores1.core.power_state.ticksClkGated::min_value          430                       # Distribution of time spent in the clock gated state (Tick)
board.processor.cores1.core.power_state.ticksClkGated::max_value    124563720                       # Distribution of time spent in the clock gated state (Tick)
board.processor.cores1.core.power_state.ticksClkGated::total          221                       # Distribution of time spent in the clock gated state (Tick)
board.processor.cores1.core.power_state.pwrStateResidencyTicks::ON    180979250                       # Cumulative time (in ticks) in various power states (Tick)
board.processor.cores1.core.power_state.pwrStateResidencyTicks::CLK_GATED    148091460                       # Cumulative time (in ticks) in various power states (Tick)
board.processor.cores1.core.rename.squashCycles       107614                       # Number of cycles rename is squashing (Cycle)
board.processor.cores1.core.rename.idleCycles       601493                       # Number of cycles rename is idle (Cycle)
board.processor.cores1.core.rename.blockCycles      6157767                       # Number of cycles rename is blocking (Cycle)
board.processor.cores1.core.rename.serializeStallCycles       266075                       # count of cycles rename stalled for serializing inst (Cycle)
board.processor.cores1.core.rename.runCycles      1336681                       # Number of cycles rename is running (Cycle)
board.processor.cores1.core.rename.unblockCycles      3348209                       # Number of cycles rename is unblocking (Cycle)
board.processor.cores1.core.rename.renamedInsts      5059224                       # Number of instructions processed by rename (Count)
board.processor.cores1.core.rename.ROBFullEvents         4145                       # Number of times rename has blocked due to ROB full (Count)
board.processor.cores1.core.rename.IQFullEvents       816442                       # Number of times rename has blocked due to IQ full (Count)
board.processor.cores1.core.rename.LQFullEvents      1977178                       # Number of times rename has blocked due to LQ full (Count)
board.processor.cores1.core.rename.SQFullEvents      1269398                       # Number of times rename has blocked due to SQ full (Count)
board.processor.cores1.core.rename.renamedOperands      3316198                       # Number of destination operands rename has renamed (Count)
board.processor.cores1.core.rename.lookups      6411393                       # Number of register rename lookups that rename has made (Count)
board.processor.cores1.core.rename.intLookups      6343563                       # Number of integer rename lookups (Count)
board.processor.cores1.core.rename.fpLookups           12                       # Number of floating rename lookups (Count)
board.processor.cores1.core.rename.committedMaps      1647292                       # Number of HB maps that are committed (Count)
board.processor.cores1.core.rename.undoneMaps      1668906                       # Number of HB maps that are undone due to squashing (Count)
board.processor.cores1.core.rename.serializing         5246                       # count of serializing insts renamed (Count)
board.processor.cores1.core.rename.tempSerializing         5386                       # count of temporary serializing insts renamed (Count)
board.processor.cores1.core.rename.skidInsts       482288                       # count of insts added to the skid buffer (Count)
board.processor.cores1.core.rob.reads        15505573                       # The number of ROB reads (Count)
board.processor.cores1.core.rob.writes        9528998                       # The number of ROB writes (Count)
board.processor.cores1.core.thread_0.numInsts      2432098                       # Number of Instructions committed (Count)
board.processor.cores1.core.thread_0.numOps      2470033                       # Number of Ops committed (Count)
board.processor.cores1.core.thread_0.numMemRefs            0                       # Number of Memory References (Count)
board.workload.inst.arm                             0                       # number of arm instructions executed (Count)
board.workload.inst.quiesce                         0                       # number of quiesce instructions executed (Count)

---------- End Simulation Statistics   ----------
