
---------- Begin Simulation Statistics ----------
simSeconds                                   0.104486                       # Number of seconds simulated (Second)
simTicks                                 104486358130                       # Number of ticks simulated (Tick)
finalTick                                104486358130                       # Number of ticks from beginning of simulation (restored from checkpoints and never reset) (Tick)
simFreq                                  1000000000000                       # The number of ticks per simulated second ((Tick/Second))
hostSeconds                                    402.53                       # Real time elapsed on the host (Second)
hostTickRate                                259575811                       # The number of ticks simulated per host second (ticks/s) ((Tick/Second))
hostMemory                                    8593908                       # Number of bytes of host memory used (Byte)
simInsts                                    150021080                       # Number of instructions simulated (Count)
simOps                                      150021154                       # Number of ops (including micro ops) simulated (Count)
hostInstRate                                   372698                       # Simulator instruction rate (inst/s) ((Count/Second))
hostOpRate                                     372698                       # Simulator op (including micro ops) rate (op/s) ((Count/Second))
board.cache_hierarchy.dptw_caches0.blockedCycles::no_mshrs            0                       # number of cycles access was blocked (Cycle)
board.cache_hierarchy.dptw_caches0.blockedCycles::no_targets            0                       # number of cycles access was blocked (Cycle)
board.cache_hierarchy.dptw_caches0.blockedCauses::no_mshrs            0                       # number of times access was blocked (Count)
board.cache_hierarchy.dptw_caches0.blockedCauses::no_targets            0                       # number of times access was blocked (Count)
board.cache_hierarchy.dptw_caches0.avgBlocked::no_mshrs          nan                       # average number of cycles each access was blocked ((Cycle/Count))
board.cache_hierarchy.dptw_caches0.avgBlocked::no_targets          nan                       # average number of cycles each access was blocked ((Cycle/Count))
board.cache_hierarchy.dptw_caches0.replacements            0                       # number of replacements (Count)
board.cache_hierarchy.dptw_caches0.power_state.pwrStateResidencyTicks::UNDEFINED 104486358130                       # Cumulative time (in ticks) in various power states (Tick)
board.cache_hierarchy.dptw_caches0.tags.tagsInUse            0                       # Average ticks per tags in use ((Tick/Count))
board.cache_hierarchy.dptw_caches0.tags.totalRefs            0                       # Total number of references to valid blocks. (Count)
board.cache_hierarchy.dptw_caches0.tags.sampledRefs            0                       # Sample count of references to valid blocks. (Count)
board.cache_hierarchy.dptw_caches0.tags.avgRefs          nan                       # Average number of references to valid blocks. ((Count/Count))
board.cache_hierarchy.dptw_caches0.tags.warmupTick            0                       # The tick when the warmup percentage was hit. (Tick)
board.cache_hierarchy.dptw_caches0.tags.tagAccesses            0                       # Number of tag accesses (Count)
board.cache_hierarchy.dptw_caches0.tags.dataAccesses            0                       # Number of data accesses (Count)
board.cache_hierarchy.dptw_caches0.tags.power_state.pwrStateResidencyTicks::UNDEFINED 104486358130                       # Cumulative time (in ticks) in various power states (Tick)
board.cache_hierarchy.dptw_caches1.blockedCycles::no_mshrs            0                       # number of cycles access was blocked (Cycle)
board.cache_hierarchy.dptw_caches1.blockedCycles::no_targets            0                       # number of cycles access was blocked (Cycle)
board.cache_hierarchy.dptw_caches1.blockedCauses::no_mshrs            0                       # number of times access was blocked (Count)
board.cache_hierarchy.dptw_caches1.blockedCauses::no_targets            0                       # number of times access was blocked (Count)
board.cache_hierarchy.dptw_caches1.avgBlocked::no_mshrs          nan                       # average number of cycles each access was blocked ((Cycle/Count))
board.cache_hierarchy.dptw_caches1.avgBlocked::no_targets          nan                       # average number of cycles each access was blocked ((Cycle/Count))
board.cache_hierarchy.dptw_caches1.replacements            0                       # number of replacements (Count)
board.cache_hierarchy.dptw_caches1.power_state.pwrStateResidencyTicks::UNDEFINED 104486358130                       # Cumulative time (in ticks) in various power states (Tick)
board.cache_hierarchy.dptw_caches1.tags.tagsInUse            0                       # Average ticks per tags in use ((Tick/Count))
board.cache_hierarchy.dptw_caches1.tags.totalRefs            0                       # Total number of references to valid blocks. (Count)
board.cache_hierarchy.dptw_caches1.tags.sampledRefs            0                       # Sample count of references to valid blocks. (Count)
board.cache_hierarchy.dptw_caches1.tags.avgRefs          nan                       # Average number of references to valid blocks. ((Count/Count))
board.cache_hierarchy.dptw_caches1.tags.warmupTick            0                       # The tick when the warmup percentage was hit. (Tick)
board.cache_hierarchy.dptw_caches1.tags.tagAccesses            0                       # Number of tag accesses (Count)
board.cache_hierarchy.dptw_caches1.tags.dataAccesses            0                       # Number of data accesses (Count)
board.cache_hierarchy.dptw_caches1.tags.power_state.pwrStateResidencyTicks::UNDEFINED 104486358130                       # Cumulative time (in ticks) in various power states (Tick)
board.cache_hierarchy.iptw_caches0.blockedCycles::no_mshrs            0                       # number of cycles access was blocked (Cycle)
board.cache_hierarchy.iptw_caches0.blockedCycles::no_targets            0                       # number of cycles access was blocked (Cycle)
board.cache_hierarchy.iptw_caches0.blockedCauses::no_mshrs            0                       # number of times access was blocked (Count)
board.cache_hierarchy.iptw_caches0.blockedCauses::no_targets            0                       # number of times access was blocked (Count)
board.cache_hierarchy.iptw_caches0.avgBlocked::no_mshrs          nan                       # average number of cycles each access was blocked ((Cycle/Count))
board.cache_hierarchy.iptw_caches0.avgBlocked::no_targets          nan                       # average number of cycles each access was blocked ((Cycle/Count))
board.cache_hierarchy.iptw_caches0.replacements            0                       # number of replacements (Count)
board.cache_hierarchy.iptw_caches0.power_state.pwrStateResidencyTicks::UNDEFINED 104486358130                       # Cumulative time (in ticks) in various power states (Tick)
board.cache_hierarchy.iptw_caches0.tags.tagsInUse            0                       # Average ticks per tags in use ((Tick/Count))
board.cache_hierarchy.iptw_caches0.tags.totalRefs            0                       # Total number of references to valid blocks. (Count)
board.cache_hierarchy.iptw_caches0.tags.sampledRefs            0                       # Sample count of references to valid blocks. (Count)
board.cache_hierarchy.iptw_caches0.tags.avgRefs          nan                       # Average number of references to valid blocks. ((Count/Count))
board.cache_hierarchy.iptw_caches0.tags.warmupTick            0                       # The tick when the warmup percentage was hit. (Tick)
board.cache_hierarchy.iptw_caches0.tags.tagAccesses            0                       # Number of tag accesses (Count)
board.cache_hierarchy.iptw_caches0.tags.dataAccesses            0                       # Number of data accesses (Count)
board.cache_hierarchy.iptw_caches0.tags.power_state.pwrStateResidencyTicks::UNDEFINED 104486358130                       # Cumulative time (in ticks) in various power states (Tick)
board.cache_hierarchy.iptw_caches1.blockedCycles::no_mshrs            0                       # number of cycles access was blocked (Cycle)
board.cache_hierarchy.iptw_caches1.blockedCycles::no_targets            0                       # number of cycles access was blocked (Cycle)
board.cache_hierarchy.iptw_caches1.blockedCauses::no_mshrs            0                       # number of times access was blocked (Count)
board.cache_hierarchy.iptw_caches1.blockedCauses::no_targets            0                       # number of times access was blocked (Count)
board.cache_hierarchy.iptw_caches1.avgBlocked::no_mshrs          nan                       # average number of cycles each access was blocked ((Cycle/Count))
board.cache_hierarchy.iptw_caches1.avgBlocked::no_targets          nan                       # average number of cycles each access was blocked ((Cycle/Count))
board.cache_hierarchy.iptw_caches1.replacements            0                       # number of replacements (Count)
board.cache_hierarchy.iptw_caches1.power_state.pwrStateResidencyTicks::UNDEFINED 104486358130                       # Cumulative time (in ticks) in various power states (Tick)
board.cache_hierarchy.iptw_caches1.tags.tagsInUse            0                       # Average ticks per tags in use ((Tick/Count))
board.cache_hierarchy.iptw_caches1.tags.totalRefs            0                       # Total number of references to valid blocks. (Count)
board.cache_hierarchy.iptw_caches1.tags.sampledRefs            0                       # Sample count of references to valid blocks. (Count)
board.cache_hierarchy.iptw_caches1.tags.avgRefs          nan                       # Average number of references to valid blocks. ((Count/Count))
board.cache_hierarchy.iptw_caches1.tags.warmupTick            0                       # The tick when the warmup percentage was hit. (Tick)
board.cache_hierarchy.iptw_caches1.tags.tagAccesses            0                       # Number of tag accesses (Count)
board.cache_hierarchy.iptw_caches1.tags.dataAccesses            0                       # Number of data accesses (Count)
board.cache_hierarchy.iptw_caches1.tags.power_state.pwrStateResidencyTicks::UNDEFINED 104486358130                       # Cumulative time (in ticks) in various power states (Tick)
board.cache_hierarchy.l1dcaches0.demandHits::processor.cores0.core.data     53224299                       # number of demand (read+write) hits (Count)
board.cache_hierarchy.l1dcaches0.demandHits::total     53224299                       # number of demand (read+write) hits (Count)
board.cache_hierarchy.l1dcaches0.overallHits::processor.cores0.core.data     53224299                       # number of overall hits (Count)
board.cache_hierarchy.l1dcaches0.overallHits::total     53224299                       # number of overall hits (Count)
board.cache_hierarchy.l1dcaches0.demandMisses::processor.cores0.core.data      8786236                       # number of demand (read+write) misses (Count)
board.cache_hierarchy.l1dcaches0.demandMisses::total      8786236                       # number of demand (read+write) misses (Count)
board.cache_hierarchy.l1dcaches0.overallMisses::processor.cores0.core.data      8786236                       # number of overall misses (Count)
board.cache_hierarchy.l1dcaches0.overallMisses::total      8786236                       # number of overall misses (Count)
board.cache_hierarchy.l1dcaches0.demandMissLatency::processor.cores0.core.data 131424343119                       # number of demand (read+write) miss ticks (Tick)
board.cache_hierarchy.l1dcaches0.demandMissLatency::total 131424343119                       # number of demand (read+write) miss ticks (Tick)
board.cache_hierarchy.l1dcaches0.overallMissLatency::processor.cores0.core.data 131424343119                       # number of overall miss ticks (Tick)
board.cache_hierarchy.l1dcaches0.overallMissLatency::total 131424343119                       # number of overall miss ticks (Tick)
board.cache_hierarchy.l1dcaches0.demandAccesses::processor.cores0.core.data     62010535                       # number of demand (read+write) accesses (Count)
board.cache_hierarchy.l1dcaches0.demandAccesses::total     62010535                       # number of demand (read+write) accesses (Count)
board.cache_hierarchy.l1dcaches0.overallAccesses::processor.cores0.core.data     62010535                       # number of overall (read+write) accesses (Count)
board.cache_hierarchy.l1dcaches0.overallAccesses::total     62010535                       # number of overall (read+write) accesses (Count)
board.cache_hierarchy.l1dcaches0.demandMissRate::processor.cores0.core.data     0.141689                       # miss rate for demand accesses (Ratio)
board.cache_hierarchy.l1dcaches0.demandMissRate::total     0.141689                       # miss rate for demand accesses (Ratio)
board.cache_hierarchy.l1dcaches0.overallMissRate::processor.cores0.core.data     0.141689                       # miss rate for overall accesses (Ratio)
board.cache_hierarchy.l1dcaches0.overallMissRate::total     0.141689                       # miss rate for overall accesses (Ratio)
board.cache_hierarchy.l1dcaches0.demandAvgMissLatency::processor.cores0.core.data 14957.980086                       # average overall miss latency in ticks ((Tick/Count))
board.cache_hierarchy.l1dcaches0.demandAvgMissLatency::total 14957.980086                       # average overall miss latency in ticks ((Tick/Count))
board.cache_hierarchy.l1dcaches0.overallAvgMissLatency::processor.cores0.core.data 14957.980086                       # average overall miss latency ((Tick/Count))
board.cache_hierarchy.l1dcaches0.overallAvgMissLatency::total 14957.980086                       # average overall miss latency ((Tick/Count))
board.cache_hierarchy.l1dcaches0.blockedCycles::no_mshrs          137                       # number of cycles access was blocked (Cycle)
board.cache_hierarchy.l1dcaches0.blockedCycles::no_targets          402                       # number of cycles access was blocked (Cycle)
board.cache_hierarchy.l1dcaches0.blockedCauses::no_mshrs           13                       # number of times access was blocked (Count)
board.cache_hierarchy.l1dcaches0.blockedCauses::no_targets           10                       # number of times access was blocked (Count)
board.cache_hierarchy.l1dcaches0.avgBlocked::no_mshrs    10.538462                       # average number of cycles each access was blocked ((Cycle/Count))
board.cache_hierarchy.l1dcaches0.avgBlocked::no_targets    40.200000                       # average number of cycles each access was blocked ((Cycle/Count))
board.cache_hierarchy.l1dcaches0.writebacks::writebacks      3620046                       # number of writebacks (Count)
board.cache_hierarchy.l1dcaches0.writebacks::total      3620046                       # number of writebacks (Count)
board.cache_hierarchy.l1dcaches0.demandMshrHits::processor.cores0.core.data      6025178                       # number of demand (read+write) MSHR hits (Count)
board.cache_hierarchy.l1dcaches0.demandMshrHits::total      6025178                       # number of demand (read+write) MSHR hits (Count)
board.cache_hierarchy.l1dcaches0.overallMshrHits::processor.cores0.core.data      6025178                       # number of overall MSHR hits (Count)
board.cache_hierarchy.l1dcaches0.overallMshrHits::total      6025178                       # number of overall MSHR hits (Count)
board.cache_hierarchy.l1dcaches0.demandMshrMisses::processor.cores0.core.data      2761058                       # number of demand (read+write) MSHR misses (Count)
board.cache_hierarchy.l1dcaches0.demandMshrMisses::total      2761058                       # number of demand (read+write) MSHR misses (Count)
board.cache_hierarchy.l1dcaches0.overallMshrMisses::cache_hierarchy.l1dcaches0.prefetcher      1120726                       # number of overall MSHR misses (Count)
board.cache_hierarchy.l1dcaches0.overallMshrMisses::processor.cores0.core.data      2761058                       # number of overall MSHR misses (Count)
board.cache_hierarchy.l1dcaches0.overallMshrMisses::total      3881784                       # number of overall MSHR misses (Count)
board.cache_hierarchy.l1dcaches0.demandMshrMissLatency::processor.cores0.core.data  46947401148                       # number of demand (read+write) MSHR miss ticks (Tick)
board.cache_hierarchy.l1dcaches0.demandMshrMissLatency::total  46947401148                       # number of demand (read+write) MSHR miss ticks (Tick)
board.cache_hierarchy.l1dcaches0.overallMshrMissLatency::cache_hierarchy.l1dcaches0.prefetcher   7486536921                       # number of overall MSHR miss ticks (Tick)
board.cache_hierarchy.l1dcaches0.overallMshrMissLatency::processor.cores0.core.data  46947401148                       # number of overall MSHR miss ticks (Tick)
board.cache_hierarchy.l1dcaches0.overallMshrMissLatency::total  54433938069                       # number of overall MSHR miss ticks (Tick)
board.cache_hierarchy.l1dcaches0.demandMshrMissRate::processor.cores0.core.data     0.044526                       # mshr miss ratio for demand accesses (Ratio)
board.cache_hierarchy.l1dcaches0.demandMshrMissRate::total     0.044526                       # mshr miss ratio for demand accesses (Ratio)
board.cache_hierarchy.l1dcaches0.overallMshrMissRate::cache_hierarchy.l1dcaches0.prefetcher          inf                       # mshr miss ratio for overall accesses (Ratio)
board.cache_hierarchy.l1dcaches0.overallMshrMissRate::processor.cores0.core.data     0.044526                       # mshr miss ratio for overall accesses (Ratio)
board.cache_hierarchy.l1dcaches0.overallMshrMissRate::total     0.062599                       # mshr miss ratio for overall accesses (Ratio)
board.cache_hierarchy.l1dcaches0.demandAvgMshrMissLatency::processor.cores0.core.data 17003.409978                       # average overall mshr miss latency ((Tick/Count))
board.cache_hierarchy.l1dcaches0.demandAvgMshrMissLatency::total 17003.409978                       # average overall mshr miss latency ((Tick/Count))
board.cache_hierarchy.l1dcaches0.overallAvgMshrMissLatency::cache_hierarchy.l1dcaches0.prefetcher  6680.077843                       # average overall mshr miss latency ((Tick/Count))
board.cache_hierarchy.l1dcaches0.overallAvgMshrMissLatency::processor.cores0.core.data 17003.409978                       # average overall mshr miss latency ((Tick/Count))
board.cache_hierarchy.l1dcaches0.overallAvgMshrMissLatency::total 14022.917831                       # average overall mshr miss latency ((Tick/Count))
board.cache_hierarchy.l1dcaches0.replacements      3811554                       # number of replacements (Count)
board.cache_hierarchy.l1dcaches0.HardPFReq.mshrMisses::cache_hierarchy.l1dcaches0.prefetcher      1120726                       # number of HardPFReq MSHR misses (Count)
board.cache_hierarchy.l1dcaches0.HardPFReq.mshrMisses::total      1120726                       # number of HardPFReq MSHR misses (Count)
board.cache_hierarchy.l1dcaches0.HardPFReq.mshrMissLatency::cache_hierarchy.l1dcaches0.prefetcher   7486536921                       # number of HardPFReq MSHR miss ticks (Tick)
board.cache_hierarchy.l1dcaches0.HardPFReq.mshrMissLatency::total   7486536921                       # number of HardPFReq MSHR miss ticks (Tick)
board.cache_hierarchy.l1dcaches0.HardPFReq.mshrMissRate::cache_hierarchy.l1dcaches0.prefetcher          inf                       # mshr miss rate for HardPFReq accesses (Ratio)
board.cache_hierarchy.l1dcaches0.HardPFReq.mshrMissRate::total          inf                       # mshr miss rate for HardPFReq accesses (Ratio)
board.cache_hierarchy.l1dcaches0.HardPFReq.avgMshrMissLatency::cache_hierarchy.l1dcaches0.prefetcher  6680.077843                       # average HardPFReq mshr miss latency ((Tick/Count))
board.cache_hierarchy.l1dcaches0.HardPFReq.avgMshrMissLatency::total  6680.077843                       # average HardPFReq mshr miss latency ((Tick/Count))
board.cache_hierarchy.l1dcaches0.LoadLockedReq.hits::processor.cores0.core.data           66                       # number of LoadLockedReq hits (Count)
board.cache_hierarchy.l1dcaches0.LoadLockedReq.hits::total           66                       # number of LoadLockedReq hits (Count)
board.cache_hierarchy.l1dcaches0.LoadLockedReq.misses::processor.cores0.core.data            8                       # number of LoadLockedReq misses (Count)
board.cache_hierarchy.l1dcaches0.LoadLockedReq.misses::total            8                       # number of LoadLockedReq misses (Count)
board.cache_hierarchy.l1dcaches0.LoadLockedReq.missLatency::processor.cores0.core.data       245830                       # number of LoadLockedReq miss ticks (Tick)
board.cache_hierarchy.l1dcaches0.LoadLockedReq.missLatency::total       245830                       # number of LoadLockedReq miss ticks (Tick)
board.cache_hierarchy.l1dcaches0.LoadLockedReq.accesses::processor.cores0.core.data           74                       # number of LoadLockedReq accesses(hits+misses) (Count)
board.cache_hierarchy.l1dcaches0.LoadLockedReq.accesses::total           74                       # number of LoadLockedReq accesses(hits+misses) (Count)
board.cache_hierarchy.l1dcaches0.LoadLockedReq.missRate::processor.cores0.core.data     0.108108                       # miss rate for LoadLockedReq accesses (Ratio)
board.cache_hierarchy.l1dcaches0.LoadLockedReq.missRate::total     0.108108                       # miss rate for LoadLockedReq accesses (Ratio)
board.cache_hierarchy.l1dcaches0.LoadLockedReq.avgMissLatency::processor.cores0.core.data 30728.750000                       # average LoadLockedReq miss latency ((Tick/Count))
board.cache_hierarchy.l1dcaches0.LoadLockedReq.avgMissLatency::total 30728.750000                       # average LoadLockedReq miss latency ((Tick/Count))
board.cache_hierarchy.l1dcaches0.LoadLockedReq.mshrHits::processor.cores0.core.data            6                       # number of LoadLockedReq MSHR hits (Count)
board.cache_hierarchy.l1dcaches0.LoadLockedReq.mshrHits::total            6                       # number of LoadLockedReq MSHR hits (Count)
board.cache_hierarchy.l1dcaches0.LoadLockedReq.mshrMisses::processor.cores0.core.data            2                       # number of LoadLockedReq MSHR misses (Count)
board.cache_hierarchy.l1dcaches0.LoadLockedReq.mshrMisses::total            2                       # number of LoadLockedReq MSHR misses (Count)
board.cache_hierarchy.l1dcaches0.LoadLockedReq.mshrMissLatency::processor.cores0.core.data        99460                       # number of LoadLockedReq MSHR miss ticks (Tick)
board.cache_hierarchy.l1dcaches0.LoadLockedReq.mshrMissLatency::total        99460                       # number of LoadLockedReq MSHR miss ticks (Tick)
board.cache_hierarchy.l1dcaches0.LoadLockedReq.mshrMissRate::processor.cores0.core.data     0.027027                       # mshr miss rate for LoadLockedReq accesses (Ratio)
board.cache_hierarchy.l1dcaches0.LoadLockedReq.mshrMissRate::total     0.027027                       # mshr miss rate for LoadLockedReq accesses (Ratio)
board.cache_hierarchy.l1dcaches0.LoadLockedReq.avgMshrMissLatency::processor.cores0.core.data        49730                       # average LoadLockedReq mshr miss latency ((Tick/Count))
board.cache_hierarchy.l1dcaches0.LoadLockedReq.avgMshrMissLatency::total        49730                       # average LoadLockedReq mshr miss latency ((Tick/Count))
board.cache_hierarchy.l1dcaches0.ReadReq.hits::processor.cores0.core.data     34255165                       # number of ReadReq hits (Count)
board.cache_hierarchy.l1dcaches0.ReadReq.hits::total     34255165                       # number of ReadReq hits (Count)
board.cache_hierarchy.l1dcaches0.ReadReq.misses::processor.cores0.core.data      5616272                       # number of ReadReq misses (Count)
board.cache_hierarchy.l1dcaches0.ReadReq.misses::total      5616272                       # number of ReadReq misses (Count)
board.cache_hierarchy.l1dcaches0.ReadReq.missLatency::processor.cores0.core.data  82909147160                       # number of ReadReq miss ticks (Tick)
board.cache_hierarchy.l1dcaches0.ReadReq.missLatency::total  82909147160                       # number of ReadReq miss ticks (Tick)
board.cache_hierarchy.l1dcaches0.ReadReq.accesses::processor.cores0.core.data     39871437                       # number of ReadReq accesses(hits+misses) (Count)
board.cache_hierarchy.l1dcaches0.ReadReq.accesses::total     39871437                       # number of ReadReq accesses(hits+misses) (Count)
board.cache_hierarchy.l1dcaches0.ReadReq.missRate::processor.cores0.core.data     0.140860                       # miss rate for ReadReq accesses (Ratio)
board.cache_hierarchy.l1dcaches0.ReadReq.missRate::total     0.140860                       # miss rate for ReadReq accesses (Ratio)
board.cache_hierarchy.l1dcaches0.ReadReq.avgMissLatency::processor.cores0.core.data 14762.309796                       # average ReadReq miss latency ((Tick/Count))
board.cache_hierarchy.l1dcaches0.ReadReq.avgMissLatency::total 14762.309796                       # average ReadReq miss latency ((Tick/Count))
board.cache_hierarchy.l1dcaches0.ReadReq.mshrHits::processor.cores0.core.data      3817341                       # number of ReadReq MSHR hits (Count)
board.cache_hierarchy.l1dcaches0.ReadReq.mshrHits::total      3817341                       # number of ReadReq MSHR hits (Count)
board.cache_hierarchy.l1dcaches0.ReadReq.mshrMisses::processor.cores0.core.data      1798931                       # number of ReadReq MSHR misses (Count)
board.cache_hierarchy.l1dcaches0.ReadReq.mshrMisses::total      1798931                       # number of ReadReq MSHR misses (Count)
board.cache_hierarchy.l1dcaches0.ReadReq.mshrMissLatency::processor.cores0.core.data  30578180980                       # number of ReadReq MSHR miss ticks (Tick)
board.cache_hierarchy.l1dcaches0.ReadReq.mshrMissLatency::total  30578180980                       # number of ReadReq MSHR miss ticks (Tick)
board.cache_hierarchy.l1dcaches0.ReadReq.mshrMissRate::processor.cores0.core.data     0.045118                       # mshr miss rate for ReadReq accesses (Ratio)
board.cache_hierarchy.l1dcaches0.ReadReq.mshrMissRate::total     0.045118                       # mshr miss rate for ReadReq accesses (Ratio)
board.cache_hierarchy.l1dcaches0.ReadReq.avgMshrMissLatency::processor.cores0.core.data 16997.973230                       # average ReadReq mshr miss latency ((Tick/Count))
board.cache_hierarchy.l1dcaches0.ReadReq.avgMshrMissLatency::total 16997.973230                       # average ReadReq mshr miss latency ((Tick/Count))
board.cache_hierarchy.l1dcaches0.StoreCondReq.hits::processor.cores0.core.data           58                       # number of StoreCondReq hits (Count)
board.cache_hierarchy.l1dcaches0.StoreCondReq.hits::total           58                       # number of StoreCondReq hits (Count)
board.cache_hierarchy.l1dcaches0.StoreCondReq.misses::processor.cores0.core.data            6                       # number of StoreCondReq misses (Count)
board.cache_hierarchy.l1dcaches0.StoreCondReq.misses::total            6                       # number of StoreCondReq misses (Count)
board.cache_hierarchy.l1dcaches0.StoreCondReq.missLatency::processor.cores0.core.data       107480                       # number of StoreCondReq miss ticks (Tick)
board.cache_hierarchy.l1dcaches0.StoreCondReq.missLatency::total       107480                       # number of StoreCondReq miss ticks (Tick)
board.cache_hierarchy.l1dcaches0.StoreCondReq.accesses::processor.cores0.core.data           64                       # number of StoreCondReq accesses(hits+misses) (Count)
board.cache_hierarchy.l1dcaches0.StoreCondReq.accesses::total           64                       # number of StoreCondReq accesses(hits+misses) (Count)
board.cache_hierarchy.l1dcaches0.StoreCondReq.missRate::processor.cores0.core.data     0.093750                       # miss rate for StoreCondReq accesses (Ratio)
board.cache_hierarchy.l1dcaches0.StoreCondReq.missRate::total     0.093750                       # miss rate for StoreCondReq accesses (Ratio)
board.cache_hierarchy.l1dcaches0.StoreCondReq.avgMissLatency::processor.cores0.core.data 17913.333333                       # average StoreCondReq miss latency ((Tick/Count))
board.cache_hierarchy.l1dcaches0.StoreCondReq.avgMissLatency::total 17913.333333                       # average StoreCondReq miss latency ((Tick/Count))
board.cache_hierarchy.l1dcaches0.StoreCondReq.mshrMisses::processor.cores0.core.data            6                       # number of StoreCondReq MSHR misses (Count)
board.cache_hierarchy.l1dcaches0.StoreCondReq.mshrMisses::total            6                       # number of StoreCondReq MSHR misses (Count)
board.cache_hierarchy.l1dcaches0.StoreCondReq.mshrMissLatency::processor.cores0.core.data        98540                       # number of StoreCondReq MSHR miss ticks (Tick)
board.cache_hierarchy.l1dcaches0.StoreCondReq.mshrMissLatency::total        98540                       # number of StoreCondReq MSHR miss ticks (Tick)
board.cache_hierarchy.l1dcaches0.StoreCondReq.mshrMissRate::processor.cores0.core.data     0.093750                       # mshr miss rate for StoreCondReq accesses (Ratio)
board.cache_hierarchy.l1dcaches0.StoreCondReq.mshrMissRate::total     0.093750                       # mshr miss rate for StoreCondReq accesses (Ratio)
board.cache_hierarchy.l1dcaches0.StoreCondReq.avgMshrMissLatency::processor.cores0.core.data 16423.333333                       # average StoreCondReq mshr miss latency ((Tick/Count))
board.cache_hierarchy.l1dcaches0.StoreCondReq.avgMshrMissLatency::total 16423.333333                       # average StoreCondReq mshr miss latency ((Tick/Count))
board.cache_hierarchy.l1dcaches0.SwapReq.hits::processor.cores0.core.data          106                       # number of SwapReq hits (Count)
board.cache_hierarchy.l1dcaches0.SwapReq.hits::total          106                       # number of SwapReq hits (Count)
board.cache_hierarchy.l1dcaches0.SwapReq.misses::processor.cores0.core.data            2                       # number of SwapReq misses (Count)
board.cache_hierarchy.l1dcaches0.SwapReq.misses::total            2                       # number of SwapReq misses (Count)
board.cache_hierarchy.l1dcaches0.SwapReq.missLatency::processor.cores0.core.data        82850                       # number of SwapReq miss ticks (Tick)
board.cache_hierarchy.l1dcaches0.SwapReq.missLatency::total        82850                       # number of SwapReq miss ticks (Tick)
board.cache_hierarchy.l1dcaches0.SwapReq.accesses::processor.cores0.core.data          108                       # number of SwapReq accesses(hits+misses) (Count)
board.cache_hierarchy.l1dcaches0.SwapReq.accesses::total          108                       # number of SwapReq accesses(hits+misses) (Count)
board.cache_hierarchy.l1dcaches0.SwapReq.missRate::processor.cores0.core.data     0.018519                       # miss rate for SwapReq accesses (Ratio)
board.cache_hierarchy.l1dcaches0.SwapReq.missRate::total     0.018519                       # miss rate for SwapReq accesses (Ratio)
board.cache_hierarchy.l1dcaches0.SwapReq.avgMissLatency::processor.cores0.core.data        41425                       # average SwapReq miss latency ((Tick/Count))
board.cache_hierarchy.l1dcaches0.SwapReq.avgMissLatency::total        41425                       # average SwapReq miss latency ((Tick/Count))
board.cache_hierarchy.l1dcaches0.SwapReq.mshrMisses::processor.cores0.core.data            2                       # number of SwapReq MSHR misses (Count)
board.cache_hierarchy.l1dcaches0.SwapReq.mshrMisses::total            2                       # number of SwapReq MSHR misses (Count)
board.cache_hierarchy.l1dcaches0.SwapReq.mshrMissLatency::processor.cores0.core.data        78870                       # number of SwapReq MSHR miss ticks (Tick)
board.cache_hierarchy.l1dcaches0.SwapReq.mshrMissLatency::total        78870                       # number of SwapReq MSHR miss ticks (Tick)
board.cache_hierarchy.l1dcaches0.SwapReq.mshrMissRate::processor.cores0.core.data     0.018519                       # mshr miss rate for SwapReq accesses (Ratio)
board.cache_hierarchy.l1dcaches0.SwapReq.mshrMissRate::total     0.018519                       # mshr miss rate for SwapReq accesses (Ratio)
board.cache_hierarchy.l1dcaches0.SwapReq.avgMshrMissLatency::processor.cores0.core.data        39435                       # average SwapReq mshr miss latency ((Tick/Count))
board.cache_hierarchy.l1dcaches0.SwapReq.avgMshrMissLatency::total        39435                       # average SwapReq mshr miss latency ((Tick/Count))
board.cache_hierarchy.l1dcaches0.WriteReq.hits::processor.cores0.core.data     18969134                       # number of WriteReq hits (Count)
board.cache_hierarchy.l1dcaches0.WriteReq.hits::total     18969134                       # number of WriteReq hits (Count)
board.cache_hierarchy.l1dcaches0.WriteReq.misses::processor.cores0.core.data      3169964                       # number of WriteReq misses (Count)
board.cache_hierarchy.l1dcaches0.WriteReq.misses::total      3169964                       # number of WriteReq misses (Count)
board.cache_hierarchy.l1dcaches0.WriteReq.missLatency::processor.cores0.core.data  48515195959                       # number of WriteReq miss ticks (Tick)
board.cache_hierarchy.l1dcaches0.WriteReq.missLatency::total  48515195959                       # number of WriteReq miss ticks (Tick)
board.cache_hierarchy.l1dcaches0.WriteReq.accesses::processor.cores0.core.data     22139098                       # number of WriteReq accesses(hits+misses) (Count)
board.cache_hierarchy.l1dcaches0.WriteReq.accesses::total     22139098                       # number of WriteReq accesses(hits+misses) (Count)
board.cache_hierarchy.l1dcaches0.WriteReq.missRate::processor.cores0.core.data     0.143184                       # miss rate for WriteReq accesses (Ratio)
board.cache_hierarchy.l1dcaches0.WriteReq.missRate::total     0.143184                       # miss rate for WriteReq accesses (Ratio)
board.cache_hierarchy.l1dcaches0.WriteReq.avgMissLatency::processor.cores0.core.data 15304.652027                       # average WriteReq miss latency ((Tick/Count))
board.cache_hierarchy.l1dcaches0.WriteReq.avgMissLatency::total 15304.652027                       # average WriteReq miss latency ((Tick/Count))
board.cache_hierarchy.l1dcaches0.WriteReq.mshrHits::processor.cores0.core.data      2207837                       # number of WriteReq MSHR hits (Count)
board.cache_hierarchy.l1dcaches0.WriteReq.mshrHits::total      2207837                       # number of WriteReq MSHR hits (Count)
board.cache_hierarchy.l1dcaches0.WriteReq.mshrMisses::processor.cores0.core.data       962127                       # number of WriteReq MSHR misses (Count)
board.cache_hierarchy.l1dcaches0.WriteReq.mshrMisses::total       962127                       # number of WriteReq MSHR misses (Count)
board.cache_hierarchy.l1dcaches0.WriteReq.mshrMissLatency::processor.cores0.core.data  16369220168                       # number of WriteReq MSHR miss ticks (Tick)
board.cache_hierarchy.l1dcaches0.WriteReq.mshrMissLatency::total  16369220168                       # number of WriteReq MSHR miss ticks (Tick)
board.cache_hierarchy.l1dcaches0.WriteReq.mshrMissRate::processor.cores0.core.data     0.043458                       # mshr miss rate for WriteReq accesses (Ratio)
board.cache_hierarchy.l1dcaches0.WriteReq.mshrMissRate::total     0.043458                       # mshr miss rate for WriteReq accesses (Ratio)
board.cache_hierarchy.l1dcaches0.WriteReq.avgMshrMissLatency::processor.cores0.core.data 17013.575306                       # average WriteReq mshr miss latency ((Tick/Count))
board.cache_hierarchy.l1dcaches0.WriteReq.avgMshrMissLatency::total 17013.575306                       # average WriteReq mshr miss latency ((Tick/Count))
board.cache_hierarchy.l1dcaches0.power_state.pwrStateResidencyTicks::UNDEFINED 104486358130                       # Cumulative time (in ticks) in various power states (Tick)
board.cache_hierarchy.l1dcaches0.prefetcher.demandMshrMisses      2761058                       # demands not covered by prefetchs (Count)
board.cache_hierarchy.l1dcaches0.prefetcher.pfIssued      1538317                       # number of hwpf issued (Count)
board.cache_hierarchy.l1dcaches0.prefetcher.pfUnused       204903                       # number of HardPF blocks evicted w/o reference (Count)
board.cache_hierarchy.l1dcaches0.prefetcher.pfUseful      1149645                       # number of useful prefetch (Count)
board.cache_hierarchy.l1dcaches0.prefetcher.pfUsefulButMiss       234529                       # number of hit on prefetch but cache block is not in an usable state (Count)
board.cache_hierarchy.l1dcaches0.prefetcher.accuracy     0.747339                       # accuracy of the prefetcher (Count)
board.cache_hierarchy.l1dcaches0.prefetcher.coverage     0.293974                       # coverage brought by this prefetcher (Count)
board.cache_hierarchy.l1dcaches0.prefetcher.pfHitInCache       395899                       # number of prefetches hitting in cache (Count)
board.cache_hierarchy.l1dcaches0.prefetcher.pfHitInMSHR        21627                       # number of prefetches hitting in a MSHR (Count)
board.cache_hierarchy.l1dcaches0.prefetcher.pfHitInWB           65                       # number of prefetches hit in the Write Buffer (Count)
board.cache_hierarchy.l1dcaches0.prefetcher.pfLate       417591                       # number of late prefetches (hitting in cache, MSHR or WB) (Count)
board.cache_hierarchy.l1dcaches0.prefetcher.pfIdentified      2073192                       # number of prefetch candidates identified (Count)
board.cache_hierarchy.l1dcaches0.prefetcher.pfBufferHit       475507                       # number of redundant prefetches already in prefetch queue (Count)
board.cache_hierarchy.l1dcaches0.prefetcher.pfInCache            0                       # number of redundant prefetches already in cache/mshr dropped (Count)
board.cache_hierarchy.l1dcaches0.prefetcher.pfRemovedDemand         1313                       # number of prefetches dropped due to a demand for the same address (Count)
board.cache_hierarchy.l1dcaches0.prefetcher.pfRemovedFull            0                       # number of prefetches dropped due to prefetch queue size (Count)
board.cache_hierarchy.l1dcaches0.prefetcher.pfSpanPage       406956                       # number of prefetches that crossed the page (Count)
board.cache_hierarchy.l1dcaches0.prefetcher.pfUsefulSpanPage        58632                       # number of prefetches that is useful and crossed the page (Count)
board.cache_hierarchy.l1dcaches0.prefetcher.power_state.pwrStateResidencyTicks::UNDEFINED 104486358130                       # Cumulative time (in ticks) in various power states (Tick)
board.cache_hierarchy.l1dcaches0.tags.tagsInUse   511.816000                       # Average ticks per tags in use ((Tick/Count))
board.cache_hierarchy.l1dcaches0.tags.totalRefs     57336751                       # Total number of references to valid blocks. (Count)
board.cache_hierarchy.l1dcaches0.tags.sampledRefs      3812066                       # Sample count of references to valid blocks. (Count)
board.cache_hierarchy.l1dcaches0.tags.avgRefs    15.040860                       # Average number of references to valid blocks. ((Count/Count))
board.cache_hierarchy.l1dcaches0.tags.warmupTick       228010                       # The tick when the warmup percentage was hit. (Tick)
board.cache_hierarchy.l1dcaches0.tags.occupancies::cache_hierarchy.l1dcaches0.prefetcher   129.583227                       # Average occupied blocks per tick, per requestor ((Count/Tick))
board.cache_hierarchy.l1dcaches0.tags.occupancies::processor.cores0.core.data   382.232773                       # Average occupied blocks per tick, per requestor ((Count/Tick))
board.cache_hierarchy.l1dcaches0.tags.avgOccs::cache_hierarchy.l1dcaches0.prefetcher     0.253092                       # Average percentage of cache occupancy ((Ratio/Tick))
board.cache_hierarchy.l1dcaches0.tags.avgOccs::processor.cores0.core.data     0.746548                       # Average percentage of cache occupancy ((Ratio/Tick))
board.cache_hierarchy.l1dcaches0.tags.avgOccs::total     0.999641                       # Average percentage of cache occupancy ((Ratio/Tick))
board.cache_hierarchy.l1dcaches0.tags.occupanciesTaskId::1022          131                       # Occupied blocks per task id (Count)
board.cache_hierarchy.l1dcaches0.tags.occupanciesTaskId::1024          381                       # Occupied blocks per task id (Count)
board.cache_hierarchy.l1dcaches0.tags.ageTaskId_1022::0           34                       # Occupied blocks per task id, per block age (Count)
board.cache_hierarchy.l1dcaches0.tags.ageTaskId_1022::1           77                       # Occupied blocks per task id, per block age (Count)
board.cache_hierarchy.l1dcaches0.tags.ageTaskId_1022::2           20                       # Occupied blocks per task id, per block age (Count)
board.cache_hierarchy.l1dcaches0.tags.ageTaskId_1024::0          180                       # Occupied blocks per task id, per block age (Count)
board.cache_hierarchy.l1dcaches0.tags.ageTaskId_1024::1          141                       # Occupied blocks per task id, per block age (Count)
board.cache_hierarchy.l1dcaches0.tags.ageTaskId_1024::2           60                       # Occupied blocks per task id, per block age (Count)
board.cache_hierarchy.l1dcaches0.tags.ratioOccsTaskId::1022     0.255859                       # Ratio of occupied blocks and all blocks, per task id (Ratio)
board.cache_hierarchy.l1dcaches0.tags.ratioOccsTaskId::1024     0.744141                       # Ratio of occupied blocks and all blocks, per task id (Ratio)
board.cache_hierarchy.l1dcaches0.tags.tagAccesses    499898314                       # Number of tag accesses (Count)
board.cache_hierarchy.l1dcaches0.tags.dataAccesses    499898314                       # Number of data accesses (Count)
board.cache_hierarchy.l1dcaches0.tags.power_state.pwrStateResidencyTicks::UNDEFINED 104486358130                       # Cumulative time (in ticks) in various power states (Tick)
board.cache_hierarchy.l1dcaches1.blockedCycles::no_mshrs            0                       # number of cycles access was blocked (Cycle)
board.cache_hierarchy.l1dcaches1.blockedCycles::no_targets            0                       # number of cycles access was blocked (Cycle)
board.cache_hierarchy.l1dcaches1.blockedCauses::no_mshrs            0                       # number of times access was blocked (Count)
board.cache_hierarchy.l1dcaches1.blockedCauses::no_targets            0                       # number of times access was blocked (Count)
board.cache_hierarchy.l1dcaches1.avgBlocked::no_mshrs          nan                       # average number of cycles each access was blocked ((Cycle/Count))
board.cache_hierarchy.l1dcaches1.avgBlocked::no_targets          nan                       # average number of cycles each access was blocked ((Cycle/Count))
board.cache_hierarchy.l1dcaches1.replacements            0                       # number of replacements (Count)
board.cache_hierarchy.l1dcaches1.power_state.pwrStateResidencyTicks::UNDEFINED 104486358130                       # Cumulative time (in ticks) in various power states (Tick)
board.cache_hierarchy.l1dcaches1.prefetcher.demandMshrMisses            0                       # demands not covered by prefetchs (Count)
board.cache_hierarchy.l1dcaches1.prefetcher.pfIssued            0                       # number of hwpf issued (Count)
board.cache_hierarchy.l1dcaches1.prefetcher.pfUseful            0                       # number of useful prefetch (Count)
board.cache_hierarchy.l1dcaches1.prefetcher.pfUsefulButMiss            0                       # number of hit on prefetch but cache block is not in an usable state (Count)
board.cache_hierarchy.l1dcaches1.prefetcher.accuracy          nan                       # accuracy of the prefetcher (Count)
board.cache_hierarchy.l1dcaches1.prefetcher.coverage          nan                       # coverage brought by this prefetcher (Count)
board.cache_hierarchy.l1dcaches1.prefetcher.pfHitInCache            0                       # number of prefetches hitting in cache (Count)
board.cache_hierarchy.l1dcaches1.prefetcher.pfHitInMSHR            0                       # number of prefetches hitting in a MSHR (Count)
board.cache_hierarchy.l1dcaches1.prefetcher.pfHitInWB            0                       # number of prefetches hit in the Write Buffer (Count)
board.cache_hierarchy.l1dcaches1.prefetcher.pfLate            0                       # number of late prefetches (hitting in cache, MSHR or WB) (Count)
board.cache_hierarchy.l1dcaches1.prefetcher.pfIdentified            0                       # number of prefetch candidates identified (Count)
board.cache_hierarchy.l1dcaches1.prefetcher.pfBufferHit            0                       # number of redundant prefetches already in prefetch queue (Count)
board.cache_hierarchy.l1dcaches1.prefetcher.pfInCache            0                       # number of redundant prefetches already in cache/mshr dropped (Count)
board.cache_hierarchy.l1dcaches1.prefetcher.pfRemovedDemand            0                       # number of prefetches dropped due to a demand for the same address (Count)
board.cache_hierarchy.l1dcaches1.prefetcher.pfRemovedFull            0                       # number of prefetches dropped due to prefetch queue size (Count)
board.cache_hierarchy.l1dcaches1.prefetcher.pfSpanPage            0                       # number of prefetches that crossed the page (Count)
board.cache_hierarchy.l1dcaches1.prefetcher.pfUsefulSpanPage            0                       # number of prefetches that is useful and crossed the page (Count)
board.cache_hierarchy.l1dcaches1.prefetcher.power_state.pwrStateResidencyTicks::UNDEFINED 104486358130                       # Cumulative time (in ticks) in various power states (Tick)
board.cache_hierarchy.l1dcaches1.tags.tagsInUse            0                       # Average ticks per tags in use ((Tick/Count))
board.cache_hierarchy.l1dcaches1.tags.totalRefs            0                       # Total number of references to valid blocks. (Count)
board.cache_hierarchy.l1dcaches1.tags.sampledRefs            0                       # Sample count of references to valid blocks. (Count)
board.cache_hierarchy.l1dcaches1.tags.avgRefs          nan                       # Average number of references to valid blocks. ((Count/Count))
board.cache_hierarchy.l1dcaches1.tags.warmupTick            0                       # The tick when the warmup percentage was hit. (Tick)
board.cache_hierarchy.l1dcaches1.tags.tagAccesses            0                       # Number of tag accesses (Count)
board.cache_hierarchy.l1dcaches1.tags.dataAccesses            0                       # Number of data accesses (Count)
board.cache_hierarchy.l1dcaches1.tags.power_state.pwrStateResidencyTicks::UNDEFINED 104486358130                       # Cumulative time (in ticks) in various power states (Tick)
board.cache_hierarchy.l1icaches0.demandHits::processor.cores0.core.inst      9568028                       # number of demand (read+write) hits (Count)
board.cache_hierarchy.l1icaches0.demandHits::total      9568028                       # number of demand (read+write) hits (Count)
board.cache_hierarchy.l1icaches0.overallHits::processor.cores0.core.inst      9568028                       # number of overall hits (Count)
board.cache_hierarchy.l1icaches0.overallHits::total      9568028                       # number of overall hits (Count)
board.cache_hierarchy.l1icaches0.demandMisses::processor.cores0.core.inst         7663                       # number of demand (read+write) misses (Count)
board.cache_hierarchy.l1icaches0.demandMisses::total         7663                       # number of demand (read+write) misses (Count)
board.cache_hierarchy.l1icaches0.overallMisses::processor.cores0.core.inst         7663                       # number of overall misses (Count)
board.cache_hierarchy.l1icaches0.overallMisses::total         7663                       # number of overall misses (Count)
board.cache_hierarchy.l1icaches0.demandMissLatency::processor.cores0.core.inst    264808070                       # number of demand (read+write) miss ticks (Tick)
board.cache_hierarchy.l1icaches0.demandMissLatency::total    264808070                       # number of demand (read+write) miss ticks (Tick)
board.cache_hierarchy.l1icaches0.overallMissLatency::processor.cores0.core.inst    264808070                       # number of overall miss ticks (Tick)
board.cache_hierarchy.l1icaches0.overallMissLatency::total    264808070                       # number of overall miss ticks (Tick)
board.cache_hierarchy.l1icaches0.demandAccesses::processor.cores0.core.inst      9575691                       # number of demand (read+write) accesses (Count)
board.cache_hierarchy.l1icaches0.demandAccesses::total      9575691                       # number of demand (read+write) accesses (Count)
board.cache_hierarchy.l1icaches0.overallAccesses::processor.cores0.core.inst      9575691                       # number of overall (read+write) accesses (Count)
board.cache_hierarchy.l1icaches0.overallAccesses::total      9575691                       # number of overall (read+write) accesses (Count)
board.cache_hierarchy.l1icaches0.demandMissRate::processor.cores0.core.inst     0.000800                       # miss rate for demand accesses (Ratio)
board.cache_hierarchy.l1icaches0.demandMissRate::total     0.000800                       # miss rate for demand accesses (Ratio)
board.cache_hierarchy.l1icaches0.overallMissRate::processor.cores0.core.inst     0.000800                       # miss rate for overall accesses (Ratio)
board.cache_hierarchy.l1icaches0.overallMissRate::total     0.000800                       # miss rate for overall accesses (Ratio)
board.cache_hierarchy.l1icaches0.demandAvgMissLatency::processor.cores0.core.inst 34556.710166                       # average overall miss latency in ticks ((Tick/Count))
board.cache_hierarchy.l1icaches0.demandAvgMissLatency::total 34556.710166                       # average overall miss latency in ticks ((Tick/Count))
board.cache_hierarchy.l1icaches0.overallAvgMissLatency::processor.cores0.core.inst 34556.710166                       # average overall miss latency ((Tick/Count))
board.cache_hierarchy.l1icaches0.overallAvgMissLatency::total 34556.710166                       # average overall miss latency ((Tick/Count))
board.cache_hierarchy.l1icaches0.blockedCycles::no_mshrs            0                       # number of cycles access was blocked (Cycle)
board.cache_hierarchy.l1icaches0.blockedCycles::no_targets            0                       # number of cycles access was blocked (Cycle)
board.cache_hierarchy.l1icaches0.blockedCauses::no_mshrs            0                       # number of times access was blocked (Count)
board.cache_hierarchy.l1icaches0.blockedCauses::no_targets            0                       # number of times access was blocked (Count)
board.cache_hierarchy.l1icaches0.avgBlocked::no_mshrs          nan                       # average number of cycles each access was blocked ((Cycle/Count))
board.cache_hierarchy.l1icaches0.avgBlocked::no_targets          nan                       # average number of cycles each access was blocked ((Cycle/Count))
board.cache_hierarchy.l1icaches0.demandMshrHits::processor.cores0.core.inst          714                       # number of demand (read+write) MSHR hits (Count)
board.cache_hierarchy.l1icaches0.demandMshrHits::total          714                       # number of demand (read+write) MSHR hits (Count)
board.cache_hierarchy.l1icaches0.overallMshrHits::processor.cores0.core.inst          714                       # number of overall MSHR hits (Count)
board.cache_hierarchy.l1icaches0.overallMshrHits::total          714                       # number of overall MSHR hits (Count)
board.cache_hierarchy.l1icaches0.demandMshrMisses::processor.cores0.core.inst         6949                       # number of demand (read+write) MSHR misses (Count)
board.cache_hierarchy.l1icaches0.demandMshrMisses::total         6949                       # number of demand (read+write) MSHR misses (Count)
board.cache_hierarchy.l1icaches0.overallMshrMisses::processor.cores0.core.inst         6949                       # number of overall MSHR misses (Count)
board.cache_hierarchy.l1icaches0.overallMshrMisses::total         6949                       # number of overall MSHR misses (Count)
board.cache_hierarchy.l1icaches0.demandMshrMissLatency::processor.cores0.core.inst    233661750                       # number of demand (read+write) MSHR miss ticks (Tick)
board.cache_hierarchy.l1icaches0.demandMshrMissLatency::total    233661750                       # number of demand (read+write) MSHR miss ticks (Tick)
board.cache_hierarchy.l1icaches0.overallMshrMissLatency::processor.cores0.core.inst    233661750                       # number of overall MSHR miss ticks (Tick)
board.cache_hierarchy.l1icaches0.overallMshrMissLatency::total    233661750                       # number of overall MSHR miss ticks (Tick)
board.cache_hierarchy.l1icaches0.demandMshrMissRate::processor.cores0.core.inst     0.000726                       # mshr miss ratio for demand accesses (Ratio)
board.cache_hierarchy.l1icaches0.demandMshrMissRate::total     0.000726                       # mshr miss ratio for demand accesses (Ratio)
board.cache_hierarchy.l1icaches0.overallMshrMissRate::processor.cores0.core.inst     0.000726                       # mshr miss ratio for overall accesses (Ratio)
board.cache_hierarchy.l1icaches0.overallMshrMissRate::total     0.000726                       # mshr miss ratio for overall accesses (Ratio)
board.cache_hierarchy.l1icaches0.demandAvgMshrMissLatency::processor.cores0.core.inst 33625.233847                       # average overall mshr miss latency ((Tick/Count))
board.cache_hierarchy.l1icaches0.demandAvgMshrMissLatency::total 33625.233847                       # average overall mshr miss latency ((Tick/Count))
board.cache_hierarchy.l1icaches0.overallAvgMshrMissLatency::processor.cores0.core.inst 33625.233847                       # average overall mshr miss latency ((Tick/Count))
board.cache_hierarchy.l1icaches0.overallAvgMshrMissLatency::total 33625.233847                       # average overall mshr miss latency ((Tick/Count))
board.cache_hierarchy.l1icaches0.replacements         6436                       # number of replacements (Count)
board.cache_hierarchy.l1icaches0.ReadReq.hits::processor.cores0.core.inst      9568028                       # number of ReadReq hits (Count)
board.cache_hierarchy.l1icaches0.ReadReq.hits::total      9568028                       # number of ReadReq hits (Count)
board.cache_hierarchy.l1icaches0.ReadReq.misses::processor.cores0.core.inst         7663                       # number of ReadReq misses (Count)
board.cache_hierarchy.l1icaches0.ReadReq.misses::total         7663                       # number of ReadReq misses (Count)
board.cache_hierarchy.l1icaches0.ReadReq.missLatency::processor.cores0.core.inst    264808070                       # number of ReadReq miss ticks (Tick)
board.cache_hierarchy.l1icaches0.ReadReq.missLatency::total    264808070                       # number of ReadReq miss ticks (Tick)
board.cache_hierarchy.l1icaches0.ReadReq.accesses::processor.cores0.core.inst      9575691                       # number of ReadReq accesses(hits+misses) (Count)
board.cache_hierarchy.l1icaches0.ReadReq.accesses::total      9575691                       # number of ReadReq accesses(hits+misses) (Count)
board.cache_hierarchy.l1icaches0.ReadReq.missRate::processor.cores0.core.inst     0.000800                       # miss rate for ReadReq accesses (Ratio)
board.cache_hierarchy.l1icaches0.ReadReq.missRate::total     0.000800                       # miss rate for ReadReq accesses (Ratio)
board.cache_hierarchy.l1icaches0.ReadReq.avgMissLatency::processor.cores0.core.inst 34556.710166                       # average ReadReq miss latency ((Tick/Count))
board.cache_hierarchy.l1icaches0.ReadReq.avgMissLatency::total 34556.710166                       # average ReadReq miss latency ((Tick/Count))
board.cache_hierarchy.l1icaches0.ReadReq.mshrHits::processor.cores0.core.inst          714                       # number of ReadReq MSHR hits (Count)
board.cache_hierarchy.l1icaches0.ReadReq.mshrHits::total          714                       # number of ReadReq MSHR hits (Count)
board.cache_hierarchy.l1icaches0.ReadReq.mshrMisses::processor.cores0.core.inst         6949                       # number of ReadReq MSHR misses (Count)
board.cache_hierarchy.l1icaches0.ReadReq.mshrMisses::total         6949                       # number of ReadReq MSHR misses (Count)
board.cache_hierarchy.l1icaches0.ReadReq.mshrMissLatency::processor.cores0.core.inst    233661750                       # number of ReadReq MSHR miss ticks (Tick)
board.cache_hierarchy.l1icaches0.ReadReq.mshrMissLatency::total    233661750                       # number of ReadReq MSHR miss ticks (Tick)
board.cache_hierarchy.l1icaches0.ReadReq.mshrMissRate::processor.cores0.core.inst     0.000726                       # mshr miss rate for ReadReq accesses (Ratio)
board.cache_hierarchy.l1icaches0.ReadReq.mshrMissRate::total     0.000726                       # mshr miss rate for ReadReq accesses (Ratio)
board.cache_hierarchy.l1icaches0.ReadReq.avgMshrMissLatency::processor.cores0.core.inst 33625.233847                       # average ReadReq mshr miss latency ((Tick/Count))
board.cache_hierarchy.l1icaches0.ReadReq.avgMshrMissLatency::total 33625.233847                       # average ReadReq mshr miss latency ((Tick/Count))
board.cache_hierarchy.l1icaches0.clk_domain.clock         1000                       # Clock period in ticks (Tick)
board.cache_hierarchy.l1icaches0.clk_domain.voltage_domain.voltage            1                       # Voltage in Volts (Volt)
board.cache_hierarchy.l1icaches0.power_state.pwrStateResidencyTicks::UNDEFINED 104486358130                       # Cumulative time (in ticks) in various power states (Tick)
board.cache_hierarchy.l1icaches0.prefetcher.demandMshrMisses         6949                       # demands not covered by prefetchs (Count)
board.cache_hierarchy.l1icaches0.prefetcher.pfIssued            0                       # number of hwpf issued (Count)
board.cache_hierarchy.l1icaches0.prefetcher.pfUseful            0                       # number of useful prefetch (Count)
board.cache_hierarchy.l1icaches0.prefetcher.pfUsefulButMiss            0                       # number of hit on prefetch but cache block is not in an usable state (Count)
board.cache_hierarchy.l1icaches0.prefetcher.accuracy          nan                       # accuracy of the prefetcher (Count)
board.cache_hierarchy.l1icaches0.prefetcher.coverage            0                       # coverage brought by this prefetcher (Count)
board.cache_hierarchy.l1icaches0.prefetcher.pfHitInCache            0                       # number of prefetches hitting in cache (Count)
board.cache_hierarchy.l1icaches0.prefetcher.pfHitInMSHR            0                       # number of prefetches hitting in a MSHR (Count)
board.cache_hierarchy.l1icaches0.prefetcher.pfHitInWB            0                       # number of prefetches hit in the Write Buffer (Count)
board.cache_hierarchy.l1icaches0.prefetcher.pfLate            0                       # number of late prefetches (hitting in cache, MSHR or WB) (Count)
board.cache_hierarchy.l1icaches0.prefetcher.pfIdentified            0                       # number of prefetch candidates identified (Count)
board.cache_hierarchy.l1icaches0.prefetcher.pfBufferHit            0                       # number of redundant prefetches already in prefetch queue (Count)
board.cache_hierarchy.l1icaches0.prefetcher.pfInCache            0                       # number of redundant prefetches already in cache/mshr dropped (Count)
board.cache_hierarchy.l1icaches0.prefetcher.pfRemovedDemand            0                       # number of prefetches dropped due to a demand for the same address (Count)
board.cache_hierarchy.l1icaches0.prefetcher.pfRemovedFull            0                       # number of prefetches dropped due to prefetch queue size (Count)
board.cache_hierarchy.l1icaches0.prefetcher.pfSpanPage            0                       # number of prefetches that crossed the page (Count)
board.cache_hierarchy.l1icaches0.prefetcher.pfUsefulSpanPage            0                       # number of prefetches that is useful and crossed the page (Count)
board.cache_hierarchy.l1icaches0.prefetcher.power_state.pwrStateResidencyTicks::UNDEFINED 104486358130                       # Cumulative time (in ticks) in various power states (Tick)
board.cache_hierarchy.l1icaches0.tags.tagsInUse   511.810626                       # Average ticks per tags in use ((Tick/Count))
board.cache_hierarchy.l1icaches0.tags.totalRefs      9574976                       # Total number of references to valid blocks. (Count)
board.cache_hierarchy.l1icaches0.tags.sampledRefs         6948                       # Sample count of references to valid blocks. (Count)
board.cache_hierarchy.l1icaches0.tags.avgRefs  1378.090961                       # Average number of references to valid blocks. ((Count/Count))
board.cache_hierarchy.l1icaches0.tags.warmupTick        75010                       # The tick when the warmup percentage was hit. (Tick)
board.cache_hierarchy.l1icaches0.tags.occupancies::processor.cores0.core.inst   511.810626                       # Average occupied blocks per tick, per requestor ((Count/Tick))
board.cache_hierarchy.l1icaches0.tags.avgOccs::processor.cores0.core.inst     0.999630                       # Average percentage of cache occupancy ((Ratio/Tick))
board.cache_hierarchy.l1icaches0.tags.avgOccs::total     0.999630                       # Average percentage of cache occupancy ((Ratio/Tick))
board.cache_hierarchy.l1icaches0.tags.occupanciesTaskId::1024          512                       # Occupied blocks per task id (Count)
board.cache_hierarchy.l1icaches0.tags.ageTaskId_1024::0           36                       # Occupied blocks per task id, per block age (Count)
board.cache_hierarchy.l1icaches0.tags.ageTaskId_1024::1           51                       # Occupied blocks per task id, per block age (Count)
board.cache_hierarchy.l1icaches0.tags.ageTaskId_1024::2          425                       # Occupied blocks per task id, per block age (Count)
board.cache_hierarchy.l1icaches0.tags.ratioOccsTaskId::1024            1                       # Ratio of occupied blocks and all blocks, per task id (Ratio)
board.cache_hierarchy.l1icaches0.tags.tagAccesses     76612476                       # Number of tag accesses (Count)
board.cache_hierarchy.l1icaches0.tags.dataAccesses     76612476                       # Number of data accesses (Count)
board.cache_hierarchy.l1icaches0.tags.power_state.pwrStateResidencyTicks::UNDEFINED 104486358130                       # Cumulative time (in ticks) in various power states (Tick)
board.cache_hierarchy.l1icaches1.blockedCycles::no_mshrs            0                       # number of cycles access was blocked (Cycle)
board.cache_hierarchy.l1icaches1.blockedCycles::no_targets            0                       # number of cycles access was blocked (Cycle)
board.cache_hierarchy.l1icaches1.blockedCauses::no_mshrs            0                       # number of times access was blocked (Count)
board.cache_hierarchy.l1icaches1.blockedCauses::no_targets            0                       # number of times access was blocked (Count)
board.cache_hierarchy.l1icaches1.avgBlocked::no_mshrs          nan                       # average number of cycles each access was blocked ((Cycle/Count))
board.cache_hierarchy.l1icaches1.avgBlocked::no_targets          nan                       # average number of cycles each access was blocked ((Cycle/Count))
board.cache_hierarchy.l1icaches1.replacements            0                       # number of replacements (Count)
board.cache_hierarchy.l1icaches1.power_state.pwrStateResidencyTicks::UNDEFINED 104486358130                       # Cumulative time (in ticks) in various power states (Tick)
board.cache_hierarchy.l1icaches1.prefetcher.demandMshrMisses            0                       # demands not covered by prefetchs (Count)
board.cache_hierarchy.l1icaches1.prefetcher.pfIssued            0                       # number of hwpf issued (Count)
board.cache_hierarchy.l1icaches1.prefetcher.pfUseful            0                       # number of useful prefetch (Count)
board.cache_hierarchy.l1icaches1.prefetcher.pfUsefulButMiss            0                       # number of hit on prefetch but cache block is not in an usable state (Count)
board.cache_hierarchy.l1icaches1.prefetcher.accuracy          nan                       # accuracy of the prefetcher (Count)
board.cache_hierarchy.l1icaches1.prefetcher.coverage          nan                       # coverage brought by this prefetcher (Count)
board.cache_hierarchy.l1icaches1.prefetcher.pfHitInCache            0                       # number of prefetches hitting in cache (Count)
board.cache_hierarchy.l1icaches1.prefetcher.pfHitInMSHR            0                       # number of prefetches hitting in a MSHR (Count)
board.cache_hierarchy.l1icaches1.prefetcher.pfHitInWB            0                       # number of prefetches hit in the Write Buffer (Count)
board.cache_hierarchy.l1icaches1.prefetcher.pfLate            0                       # number of late prefetches (hitting in cache, MSHR or WB) (Count)
board.cache_hierarchy.l1icaches1.prefetcher.pfIdentified            0                       # number of prefetch candidates identified (Count)
board.cache_hierarchy.l1icaches1.prefetcher.pfBufferHit            0                       # number of redundant prefetches already in prefetch queue (Count)
board.cache_hierarchy.l1icaches1.prefetcher.pfInCache            0                       # number of redundant prefetches already in cache/mshr dropped (Count)
board.cache_hierarchy.l1icaches1.prefetcher.pfRemovedDemand            0                       # number of prefetches dropped due to a demand for the same address (Count)
board.cache_hierarchy.l1icaches1.prefetcher.pfRemovedFull            0                       # number of prefetches dropped due to prefetch queue size (Count)
board.cache_hierarchy.l1icaches1.prefetcher.pfSpanPage            0                       # number of prefetches that crossed the page (Count)
board.cache_hierarchy.l1icaches1.prefetcher.pfUsefulSpanPage            0                       # number of prefetches that is useful and crossed the page (Count)
board.cache_hierarchy.l1icaches1.prefetcher.power_state.pwrStateResidencyTicks::UNDEFINED 104486358130                       # Cumulative time (in ticks) in various power states (Tick)
board.cache_hierarchy.l1icaches1.tags.tagsInUse            0                       # Average ticks per tags in use ((Tick/Count))
board.cache_hierarchy.l1icaches1.tags.totalRefs            0                       # Total number of references to valid blocks. (Count)
board.cache_hierarchy.l1icaches1.tags.sampledRefs            0                       # Sample count of references to valid blocks. (Count)
board.cache_hierarchy.l1icaches1.tags.avgRefs          nan                       # Average number of references to valid blocks. ((Count/Count))
board.cache_hierarchy.l1icaches1.tags.warmupTick            0                       # The tick when the warmup percentage was hit. (Tick)
board.cache_hierarchy.l1icaches1.tags.tagAccesses            0                       # Number of tag accesses (Count)
board.cache_hierarchy.l1icaches1.tags.dataAccesses            0                       # Number of data accesses (Count)
board.cache_hierarchy.l1icaches1.tags.power_state.pwrStateResidencyTicks::UNDEFINED 104486358130                       # Cumulative time (in ticks) in various power states (Tick)
board.cache_hierarchy.l2buses0.transDist::ReadResp      2926602                       # Transaction distribution (Count)
board.cache_hierarchy.l2buses0.transDist::WritebackDirty      3903398                       # Transaction distribution (Count)
board.cache_hierarchy.l2buses0.transDist::CleanEvict       212911                       # Transaction distribution (Count)
board.cache_hierarchy.l2buses0.transDist::HardPFReq        60099                       # Transaction distribution (Count)
board.cache_hierarchy.l2buses0.transDist::UpgradeReq        68529                       # Transaction distribution (Count)
board.cache_hierarchy.l2buses0.transDist::SCUpgradeReq            6                       # Transaction distribution (Count)
board.cache_hierarchy.l2buses0.transDist::UpgradeResp        68535                       # Transaction distribution (Count)
board.cache_hierarchy.l2buses0.transDist::ReadExReq       879780                       # Transaction distribution (Count)
board.cache_hierarchy.l2buses0.transDist::ReadExResp       879780                       # Transaction distribution (Count)
board.cache_hierarchy.l2buses0.transDist::ReadSharedReq      2926602                       # Transaction distribution (Count)
board.cache_hierarchy.l2buses0.transDist::InvalidateReq        13843                       # Transaction distribution (Count)
board.cache_hierarchy.l2buses0.transDist::InvalidateResp        13843                       # Transaction distribution (Count)
board.cache_hierarchy.l2buses0.pktCount_board.cache_hierarchy.l1icaches0.mem_side_port::board.cache_hierarchy.l2caches0.cpu_side_port        20332                       # Packet count per connected requestor and responder (Count)
board.cache_hierarchy.l2buses0.pktCount_board.cache_hierarchy.l1dcaches0.mem_side_port::board.cache_hierarchy.l2caches0.cpu_side_port     11575178                       # Packet count per connected requestor and responder (Count)
board.cache_hierarchy.l2buses0.pktCount::total     11595510                       # Packet count per connected requestor and responder (Count)
board.cache_hierarchy.l2buses0.pktSize_board.cache_hierarchy.l1icaches0.mem_side_port::board.cache_hierarchy.l2caches0.cpu_side_port       444672                       # Cumulative packet size per connected requestor and responder (Byte)
board.cache_hierarchy.l2buses0.pktSize_board.cache_hierarchy.l1dcaches0.mem_side_port::board.cache_hierarchy.l2caches0.cpu_side_port    474846720                       # Cumulative packet size per connected requestor and responder (Byte)
board.cache_hierarchy.l2buses0.pktSize::total    475291392                       # Cumulative packet size per connected requestor and responder (Byte)
board.cache_hierarchy.l2buses0.snoops          358418                       # Total snoops (Count)
board.cache_hierarchy.l2buses0.snoopTraffic     18134528                       # Total snoop traffic (Byte)
board.cache_hierarchy.l2buses0.snoopFanout::samples      4247217                       # Request fanout histogram (Count)
board.cache_hierarchy.l2buses0.snoopFanout::mean     0.000743                       # Request fanout histogram (Count)
board.cache_hierarchy.l2buses0.snoopFanout::stdev     0.027245                       # Request fanout histogram (Count)
board.cache_hierarchy.l2buses0.snoopFanout::underflows            0      0.00%      0.00% # Request fanout histogram (Count)
board.cache_hierarchy.l2buses0.snoopFanout::0      4244062     99.93%     99.93% # Request fanout histogram (Count)
board.cache_hierarchy.l2buses0.snoopFanout::1         3155      0.07%    100.00% # Request fanout histogram (Count)
board.cache_hierarchy.l2buses0.snoopFanout::2            0      0.00%    100.00% # Request fanout histogram (Count)
board.cache_hierarchy.l2buses0.snoopFanout::3            0      0.00%    100.00% # Request fanout histogram (Count)
board.cache_hierarchy.l2buses0.snoopFanout::4            0      0.00%    100.00% # Request fanout histogram (Count)
board.cache_hierarchy.l2buses0.snoopFanout::overflows            0      0.00%    100.00% # Request fanout histogram (Count)
board.cache_hierarchy.l2buses0.snoopFanout::min_value            0                       # Request fanout histogram (Count)
board.cache_hierarchy.l2buses0.snoopFanout::max_value            1                       # Request fanout histogram (Count)
board.cache_hierarchy.l2buses0.snoopFanout::total      4247217                       # Request fanout histogram (Count)
board.cache_hierarchy.l2buses0.power_state.pwrStateResidencyTicks::UNDEFINED 104486358130                       # Cumulative time (in ticks) in various power states (Tick)
board.cache_hierarchy.l2buses0.reqLayer0.occupancy    149954407                       # Layer occupancy (ticks) (Tick)
board.cache_hierarchy.l2buses0.reqLayer0.utilization          0.0                       # Layer utilization (Ratio)
board.cache_hierarchy.l2buses0.respLayer0.occupancy       208503                       # Layer occupancy (ticks) (Tick)
board.cache_hierarchy.l2buses0.respLayer0.utilization          0.0                       # Layer utilization (Ratio)
board.cache_hierarchy.l2buses0.respLayer1.occupancy    114807313                       # Layer occupancy (ticks) (Tick)
board.cache_hierarchy.l2buses0.respLayer1.utilization          0.0                       # Layer utilization (Ratio)
board.cache_hierarchy.l2buses0.snoop_filter.totRequests      7707110                       # Total number of requests made to the snoop filter. (Count)
board.cache_hierarchy.l2buses0.snoop_filter.hitSingleRequests      3888062                       # Number of requests hitting in the snoop filter with a single holder of the requested data. (Count)
board.cache_hierarchy.l2buses0.snoop_filter.hitMultiRequests            0                       # Number of requests hitting in the snoop filter with multiple (>1) holders of the requested data. (Count)
board.cache_hierarchy.l2buses0.snoop_filter.totSnoops         3155                       # Total number of snoops made to the snoop filter. (Count)
board.cache_hierarchy.l2buses0.snoop_filter.hitSingleSnoops         3155                       # Number of snoops hitting in the snoop filter with a single holder of the requested data. (Count)
board.cache_hierarchy.l2buses0.snoop_filter.hitMultiSnoops            0                       # Number of snoops hitting in the snoop filter with multiple (>1) holders of the requested data. (Count)
board.cache_hierarchy.l2buses1.snoops               0                       # Total snoops (Count)
board.cache_hierarchy.l2buses1.snoopTraffic            0                       # Total snoop traffic (Byte)
board.cache_hierarchy.l2buses1.snoopFanout::samples            0                       # Request fanout histogram (Count)
board.cache_hierarchy.l2buses1.snoopFanout::mean          nan                       # Request fanout histogram (Count)
board.cache_hierarchy.l2buses1.snoopFanout::stdev          nan                       # Request fanout histogram (Count)
board.cache_hierarchy.l2buses1.snoopFanout::underflows            0                       # Request fanout histogram (Count)
board.cache_hierarchy.l2buses1.snoopFanout::0            0                       # Request fanout histogram (Count)
board.cache_hierarchy.l2buses1.snoopFanout::1            0                       # Request fanout histogram (Count)
board.cache_hierarchy.l2buses1.snoopFanout::2            0                       # Request fanout histogram (Count)
board.cache_hierarchy.l2buses1.snoopFanout::3            0                       # Request fanout histogram (Count)
board.cache_hierarchy.l2buses1.snoopFanout::4            0                       # Request fanout histogram (Count)
board.cache_hierarchy.l2buses1.snoopFanout::overflows            0                       # Request fanout histogram (Count)
board.cache_hierarchy.l2buses1.snoopFanout::min_value            0                       # Request fanout histogram (Count)
board.cache_hierarchy.l2buses1.snoopFanout::max_value            0                       # Request fanout histogram (Count)
board.cache_hierarchy.l2buses1.snoopFanout::total            0                       # Request fanout histogram (Count)
board.cache_hierarchy.l2buses1.power_state.pwrStateResidencyTicks::UNDEFINED 104486358130                       # Cumulative time (in ticks) in various power states (Tick)
board.cache_hierarchy.l2buses1.snoop_filter.totRequests            0                       # Total number of requests made to the snoop filter. (Count)
board.cache_hierarchy.l2buses1.snoop_filter.hitSingleRequests            0                       # Number of requests hitting in the snoop filter with a single holder of the requested data. (Count)
board.cache_hierarchy.l2buses1.snoop_filter.hitMultiRequests            0                       # Number of requests hitting in the snoop filter with multiple (>1) holders of the requested data. (Count)
board.cache_hierarchy.l2buses1.snoop_filter.totSnoops            0                       # Total number of snoops made to the snoop filter. (Count)
board.cache_hierarchy.l2buses1.snoop_filter.hitSingleSnoops            0                       # Number of snoops hitting in the snoop filter with a single holder of the requested data. (Count)
board.cache_hierarchy.l2buses1.snoop_filter.hitMultiSnoops            0                       # Number of snoops hitting in the snoop filter with multiple (>1) holders of the requested data. (Count)
board.cache_hierarchy.l2caches0.demandHits::cache_hierarchy.l1dcaches0.prefetcher      1028700                       # number of demand (read+write) hits (Count)
board.cache_hierarchy.l2caches0.demandHits::processor.cores0.core.inst         2526                       # number of demand (read+write) hits (Count)
board.cache_hierarchy.l2caches0.demandHits::processor.cores0.core.data      2509016                       # number of demand (read+write) hits (Count)
board.cache_hierarchy.l2caches0.demandHits::total      3540242                       # number of demand (read+write) hits (Count)
board.cache_hierarchy.l2caches0.overallHits::cache_hierarchy.l1dcaches0.prefetcher      1028700                       # number of overall hits (Count)
board.cache_hierarchy.l2caches0.overallHits::processor.cores0.core.inst         2526                       # number of overall hits (Count)
board.cache_hierarchy.l2caches0.overallHits::processor.cores0.core.data      2509016                       # number of overall hits (Count)
board.cache_hierarchy.l2caches0.overallHits::total      3540242                       # number of overall hits (Count)
board.cache_hierarchy.l2caches0.demandMisses::cache_hierarchy.l1dcaches0.prefetcher        92026                       # number of demand (read+write) misses (Count)
board.cache_hierarchy.l2caches0.demandMisses::processor.cores0.core.inst         4422                       # number of demand (read+write) misses (Count)
[...]
board.processor.cores1.core.commitStats0.committedInstType::SimdFloatAdd            0                       # Class of committed instruction. (Count)
board.processor.cores1.core.commitStats0.committedInstType::SimdFloatAlu            0                       # Class of committed instruction. (Count)
board.processor.cores1.core.commitStats0.committedInstType::SimdFloatCmp            0                       # Class of committed instruction. (Count)
board.processor.cores1.core.commitStats0.committedInstType::SimdFloatCvt            0                       # Class of committed instruction. (Count)
board.processor.cores1.core.commitStats0.committedInstType::SimdFloatDiv            0                       # Class of committed instruction. (Count)
board.processor.cores1.core.commitStats0.committedInstType::SimdFloatMisc            0                       # Class of committed instruction. (Count)
board.processor.cores1.core.commitStats0.committedInstType::SimdFloatMult            0                       # Class of committed instruction. (Count)
board.processor.cores1.core.commitStats0.committedInstType::SimdFloatMultAcc            0                       # Class of committed instruction. (Count)
board.processor.cores1.core.commitStats0.committedInstType::SimdFloatMatMultAcc            0                       # Class of committed instruction. (Count)
board.processor.cores1.core.commitStats0.committedInstType::SimdFloatSqrt            0                       # Class of committed instruction. (Count)
board.processor.cores1.core.commitStats0.committedInstType::SimdReduceAdd            0                       # Class of committed instruction. (Count)
board.processor.cores1.core.commitStats0.committedInstType::SimdReduceAlu            0                       # Class of committed instruction. (Count)
board.processor.cores1.core.commitStats0.committedInstType::SimdReduceCmp            0                       # Class of committed instruction. (Count)
board.processor.cores1.core.commitStats0.committedInstType::SimdFloatReduceAdd            0                       # Class of committed instruction. (Count)
board.processor.cores1.core.commitStats0.committedInstType::SimdFloatReduceCmp            0                       # Class of committed instruction. (Count)
board.processor.cores1.core.commitStats0.committedInstType::SimdAes            0                       # Class of committed instruction. (Count)
board.processor.cores1.core.commitStats0.committedInstType::SimdAesMix            0                       # Class of committed instruction. (Count)
board.processor.cores1.core.commitStats0.committedInstType::SimdSha1Hash            0                       # Class of committed instruction. (Count)
board.processor.cores1.core.commitStats0.committedInstType::SimdSha1Hash2            0                       # Class of committed instruction. (Count)
board.processor.cores1.core.commitStats0.committedInstType::SimdSha256Hash            0                       # Class of committed instruction. (Count)
board.processor.cores1.core.commitStats0.committedInstType::SimdSha256Hash2            0                       # Class of committed instruction. (Count)
board.processor.cores1.core.commitStats0.committedInstType::SimdShaSigma2            0                       # Class of committed instruction. (Count)
board.processor.cores1.core.commitStats0.committedInstType::SimdShaSigma3            0                       # Class of committed instruction. (Count)
board.processor.cores1.core.commitStats0.committedInstType::SimdPredAlu            0                       # Class of committed instruction. (Count)
board.processor.cores1.core.commitStats0.committedInstType::Matrix            0                       # Class of committed instruction. (Count)
board.processor.cores1.core.commitStats0.committedInstType::MatrixMov            0                       # Class of committed instruction. (Count)
board.processor.cores1.core.commitStats0.committedInstType::MatrixOP            0                       # Class of committed instruction. (Count)
board.processor.cores1.core.commitStats0.committedInstType::MemRead            0                       # Class of committed instruction. (Count)
board.processor.cores1.core.commitStats0.committedInstType::MemWrite            0                       # Class of committed instruction. (Count)
board.processor.cores1.core.commitStats0.committedInstType::FloatMemRead            0                       # Class of committed instruction. (Count)
board.processor.cores1.core.commitStats0.committedInstType::FloatMemWrite            0                       # Class of committed instruction. (Count)
board.processor.cores1.core.commitStats0.committedInstType::IprAccess            0                       # Class of committed instruction. (Count)
board.processor.cores1.core.commitStats0.committedInstType::InstPrefetch            0                       # Class of committed instruction. (Count)
board.processor.cores1.core.commitStats0.committedInstType::VectorUnitStrideLoad            0                       # Class of committed instruction. (Count)
board.processor.cores1.core.commitStats0.committedInstType::VectorUnitStrideStore            0                       # Class of committed instruction. (Count)
board.processor.cores1.core.commitStats0.committedInstType::VectorUnitStrideMaskLoad            0                       # Class of committed instruction. (Count)
board.processor.cores1.core.commitStats0.committedInstType::VectorUnitStrideMaskStore            0                       # Class of committed instruction. (Count)
board.processor.cores1.core.commitStats0.committedInstType::VectorStridedLoad            0                       # Class of committed instruction. (Count)
board.processor.cores1.core.commitStats0.committedInstType::VectorStridedStore            0                       # Class of committed instruction. (Count)
board.processor.cores1.core.commitStats0.committedInstType::VectorIndexedLoad            0                       # Class of committed instruction. (Count)
board.processor.cores1.core.commitStats0.committedInstType::VectorIndexedStore            0                       # Class of committed instruction. (Count)
board.processor.cores1.core.commitStats0.committedInstType::VectorUnitStrideFaultOnlyFirstLoad            0                       # Class of committed instruction. (Count)
board.processor.cores1.core.commitStats0.committedInstType::VectorWholeRegisterLoad            0                       # Class of committed instruction. (Count)
board.processor.cores1.core.commitStats0.committedInstType::VectorWholeRegisterStore            0                       # Class of committed instruction. (Count)
board.processor.cores1.core.commitStats0.committedInstType::VectorIntegerArith            0                       # Class of committed instruction. (Count)
board.processor.cores1.core.commitStats0.committedInstType::VectorFloatArith            0                       # Class of committed instruction. (Count)
board.processor.cores1.core.commitStats0.committedInstType::VectorFloatConvert            0                       # Class of committed instruction. (Count)
board.processor.cores1.core.commitStats0.committedInstType::VectorIntegerReduce            0                       # Class of committed instruction. (Count)
board.processor.cores1.core.commitStats0.committedInstType::VectorFloatReduce            0                       # Class of committed instruction. (Count)
board.processor.cores1.core.commitStats0.committedInstType::VectorMisc            0                       # Class of committed instruction. (Count)
board.processor.cores1.core.commitStats0.committedInstType::VectorIntegerExtension            0                       # Class of committed instruction. (Count)
board.processor.cores1.core.commitStats0.committedInstType::VectorConfig            0                       # Class of committed instruction. (Count)
board.processor.cores1.core.commitStats0.committedInstType::total            0                       # Class of committed instruction. (Count)
board.processor.cores1.core.executeStats0.numInsts            0                       # Number of executed instructions (Count)
board.processor.cores1.core.executeStats0.numNop            0                       # Number of nop insts executed (Count)
board.processor.cores1.core.executeStats0.numBranches            0                       # Number of branches executed (Count)
board.processor.cores1.core.executeStats0.numLoadInsts            0                       # Number of load instructions executed (Count)
board.processor.cores1.core.executeStats0.numStoreInsts            0                       # Number of stores executed (Count)
board.processor.cores1.core.executeStats0.instRate          nan                       # Inst execution rate ((Count/Cycle))
board.processor.cores1.core.executeStats0.numFpRegWrites            0                       # Number of times the floating registers were written (Count)
board.processor.cores1.core.executeStats0.numMemRefs            0                       # Number of memory refs (Count)
board.processor.cores1.core.executeStats0.numVecAluAccesses            0                       # Number of vector alu accesses (Count)
board.processor.cores1.core.executeStats0.numDiscardedOps            0                       # Number of ops (including micro ops) which were discarded before commit (Count)
board.processor.cores1.core.fetch.nisnDist::samples            0                       # Number of instructions fetched each cycle (Total) (Count)
board.processor.cores1.core.fetch.nisnDist::mean          nan                       # Number of instructions fetched each cycle (Total) (Count)
board.processor.cores1.core.fetch.nisnDist::stdev          nan                       # Number of instructions fetched each cycle (Total) (Count)
board.processor.cores1.core.fetch.nisnDist::underflows            0                       # Number of instructions fetched each cycle (Total) (Count)
board.processor.cores1.core.fetch.nisnDist::0            0                       # Number of instructions fetched each cycle (Total) (Count)
board.processor.cores1.core.fetch.nisnDist::1            0                       # Number of instructions fetched each cycle (Total) (Count)
board.processor.cores1.core.fetch.nisnDist::2            0                       # Number of instructions fetched each cycle (Total) (Count)
board.processor.cores1.core.fetch.nisnDist::3            0                       # Number of instructions fetched each cycle (Total) (Count)
board.processor.cores1.core.fetch.nisnDist::4            0                       # Number of instructions fetched each cycle (Total) (Count)
board.processor.cores1.core.fetch.nisnDist::overflows            0                       # Number of instructions fetched each cycle (Total) (Count)
board.processor.cores1.core.fetch.nisnDist::min_value            0                       # Number of instructions fetched each cycle (Total) (Count)
board.processor.cores1.core.fetch.nisnDist::max_value            0                       # Number of instructions fetched each cycle (Total) (Count)
board.processor.cores1.core.fetch.nisnDist::total            0                       # Number of instructions fetched each cycle (Total) (Count)
board.processor.cores1.core.fetch.idleRate          nan                       # Ratio of cycles fetch was idle (Ratio)
board.processor.cores1.core.fetchStats0.numInsts            0                       # Number of instructions fetched (thread level) (Count)
board.processor.cores1.core.fetchStats0.numOps            0                       # Number of ops (including micro ops) fetched (thread level) (Count)
board.processor.cores1.core.fetchStats0.fetchRate          nan                       # Number of inst fetches per cycle ((Count/Cycle))
board.processor.cores1.core.fetchStats0.branchRate          nan                       # Number of branch fetches per cycle (Ratio)
board.processor.cores1.core.fetchStats0.numFetchSuspends            0                       # Number of times Execute suspended instruction fetching (Count)
board.processor.cores1.core.iew.idleCycles            0                       # Number of cycles IEW is idle (Cycle)
board.processor.cores1.core.iew.squashCycles            0                       # Number of cycles IEW is squashing (Cycle)
board.processor.cores1.core.iew.blockCycles            0                       # Number of cycles IEW is blocking (Cycle)
board.processor.cores1.core.iew.unblockCycles            0                       # Number of cycles IEW is unblocking (Cycle)
board.processor.cores1.core.iew.dispatchedInsts            0                       # Number of instructions dispatched to IQ (Count)
board.processor.cores1.core.iew.dispSquashedInsts            0                       # Number of squashed instructions skipped by dispatch (Count)
board.processor.cores1.core.iew.dispLoadInsts            0                       # Number of dispatched load instructions (Count)
board.processor.cores1.core.iew.dispStoreInsts            0                       # Number of dispatched store instructions (Count)
board.processor.cores1.core.iew.dispNonSpecInsts            0                       # Number of dispatched non-speculative instructions (Count)
board.processor.cores1.core.iew.iqFullEvents            0                       # Number of times the IQ has become full, causing a stall (Count)
board.processor.cores1.core.iew.lsqFullEvents            0                       # Number of times the LSQ has become full, causing a stall (Count)
board.processor.cores1.core.iew.memOrderViolationEvents            0                       # Number of memory order violations (Count)
board.processor.cores1.core.iew.predictedTakenIncorrect            0                       # Number of branches that were predicted taken incorrectly (Count)
board.processor.cores1.core.iew.predictedNotTakenIncorrect            0                       # Number of branches that were predicted not taken incorrectly (Count)
board.processor.cores1.core.iew.branchMispredicts            0                       # Number of branch mispredicts detected at execute (Count)
board.processor.cores1.core.iew.instsToCommit            0                       # Cumulative count of insts sent to commit (Count)
board.processor.cores1.core.iew.writebackCount            0                       # Cumulative count of insts written-back (Count)
board.processor.cores1.core.iew.producerInst            0                       # Number of instructions producing a value (Count)
board.processor.cores1.core.iew.consumerInst            0                       # Number of instructions consuming a value (Count)
board.processor.cores1.core.iew.wbRate            nan                       # Insts written-back per cycle ((Count/Cycle))
board.processor.cores1.core.iew.wbFanout          nan                       # Average fanout of values written-back ((Count/Count))
board.processor.cores1.core.lsq0.forwLoads            0                       # Number of loads that had data forwarded from stores (Count)
board.processor.cores1.core.lsq0.squashedLoads            0                       # Number of loads squashed (Count)
board.processor.cores1.core.lsq0.ignoredResponses            0                       # Number of memory responses ignored because the instruction is squashed (Count)
board.processor.cores1.core.lsq0.memOrderViolation            0                       # Number of memory ordering violations (Count)
board.processor.cores1.core.lsq0.squashedStores            0                       # Number of stores squashed (Count)
board.processor.cores1.core.lsq0.rescheduledLoads            0                       # Number of loads that were rescheduled (Count)
board.processor.cores1.core.lsq0.blockedByCache            0                       # Number of times an access to memory failed due to the cache being blocked (Count)
board.processor.cores1.core.mmu.dtb.readHits            0                       # read hits (Count)
board.processor.cores1.core.mmu.dtb.readMisses            0                       # read misses (Count)
board.processor.cores1.core.mmu.dtb.readAccesses            0                       # read accesses (Count)
board.processor.cores1.core.mmu.dtb.writeHits            0                       # write hits (Count)
board.processor.cores1.core.mmu.dtb.writeMisses            0                       # write misses (Count)
board.processor.cores1.core.mmu.dtb.writeAccesses            0                       # write accesses (Count)
board.processor.cores1.core.mmu.dtb.hits            0                       # Total TLB (read and write) hits (Count)
board.processor.cores1.core.mmu.dtb.misses            0                       # Total TLB (read and write) misses (Count)
board.processor.cores1.core.mmu.dtb.accesses            0                       # Total TLB (read and write) accesses (Count)
board.processor.cores1.core.mmu.dtb.walker.power_state.pwrStateResidencyTicks::UNDEFINED 104486358130                       # Cumulative time (in ticks) in various power states (Tick)
board.processor.cores1.core.mmu.itb.readHits            0                       # read hits (Count)
board.processor.cores1.core.mmu.itb.readMisses            0                       # read misses (Count)
board.processor.cores1.core.mmu.itb.readAccesses            0                       # read accesses (Count)
board.processor.cores1.core.mmu.itb.writeHits            0                       # write hits (Count)
board.processor.cores1.core.mmu.itb.writeMisses            0                       # write misses (Count)
board.processor.cores1.core.mmu.itb.writeAccesses            0                       # write accesses (Count)
board.processor.cores1.core.mmu.itb.hits            0                       # Total TLB (read and write) hits (Count)
board.processor.cores1.core.mmu.itb.misses            0                       # Total TLB (read and write) misses (Count)
board.processor.cores1.core.mmu.itb.accesses            0                       # Total TLB (read and write) accesses (Count)
board.processor.cores1.core.mmu.itb.walker.power_state.pwrStateResidencyTicks::UNDEFINED 104486358130                       # Cumulative time (in ticks) in various power states (Tick)
board.processor.cores1.core.power_state.pwrStateResidencyTicks::ON 104486358130                       # Cumulative time (in ticks) in various power states (Tick)
board.processor.cores1.core.rename.serializeStallCycles            0                       # count of cycles rename stalled for serializing inst (Cycle)
board.processor.cores1.core.rename.serializing            0                       # count of serializing insts renamed (Count)
board.processor.cores1.core.rename.tempSerializing            0                       # count of temporary serializing insts renamed (Count)
board.processor.cores1.core.rename.skidInsts            0                       # count of insts added to the skid buffer (Count)
board.processor.cores1.core.rob.reads               0                       # The number of ROB reads (Count)
board.processor.cores1.core.rob.writes              0                       # The number of ROB writes (Count)
board.processor.cores1.core.thread_0.numInsts            0                       # Number of Instructions committed (Count)
board.processor.cores1.core.thread_0.numOps            0                       # Number of Ops committed (Count)
board.processor.cores1.core.thread_0.numMemRefs            0                       # Number of Memory References (Count)
board.workload.inst.arm                             0                       # number of arm instructions executed (Count)
board.workload.inst.quiesce                         0                       # number of quiesce instructions executed (Count)

---------- End Simulation Statistics   ----------
