
---------- Begin Simulation Statistics ----------
simSeconds                                   0.063384                       # Number of seconds simulated (Second)
simTicks                                  63384404300                       # Number of ticks simulated (Tick)
finalTick                                 63384404300                       # Number of ticks from beginning of simulation (restored from checkpoints and never reset) (Tick)
simFreq                                  1000000000000                       # The number of ticks per simulated second ((Tick/Second))
hostSeconds                                    249.10                       # Real time elapsed on the host (Second)
hostTickRate                                254452368                       # The number of ticks simulated per host second (ticks/s) ((Tick/Second))
hostMemory                                    8605256                       # Number of bytes of host memory used (Byte)
simInsts                                     47925768                       # Number of instructions simulated (Count)
simOps                                       47995100                       # Number of ops (including micro ops) simulated (Count)
hostInstRate                                   192395                       # Simulator instruction rate (inst/s) ((Count/Second))
hostOpRate                                     192673                       # Simulator op (including micro ops) rate (op/s) ((Count/Second))
board.cache_hierarchy.dptw_caches0.blockedCycles::no_mshrs            0                       # number of cycles access was blocked (Cycle)
board.cache_hierarchy.dptw_caches0.blockedCycles::no_targets            0                       # number of cycles access was blocked (Cycle)
board.cache_hierarchy.dptw_caches0.blockedCauses::no_mshrs            0                       # number of times access was blocked (Count)
board.cache_hierarchy.dptw_caches0.blockedCauses::no_targets            0                       # number of times access was blocked (Count)
board.cache_hierarchy.dptw_caches0.avgBlocked::no_mshrs          nan                       # average number of cycles each access was blocked ((Cycle/Count))
board.cache_hierarchy.dptw_caches0.avgBlocked::no_targets          nan                       # average number of cycles each access was blocked ((Cycle/Count))
board.cache_hierarchy.dptw_caches0.replacements            0                       # number of replacements (Count)
board.cache_hierarchy.dptw_caches0.power_state.pwrStateResidencyTicks::UNDEFINED  63384404300                       # Cumulative time (in ticks) in various power states (Tick)
board.cache_hierarchy.dptw_caches0.tags.tagsInUse            0                       # Average ticks per tags in use ((Tick/Count))
board.cache_hierarchy.dptw_caches0.tags.totalRefs            0                       # Total number of references to valid blocks. (Count)
board.cache_hierarchy.dptw_caches0.tags.sampledRefs            0                       # Sample count of references to valid blocks. (Count)
board.cache_hierarchy.dptw_caches0.tags.avgRefs          nan                       # Average number of references to valid blocks. ((Count/Count))
board.cache_hierarchy.dptw_caches0.tags.warmupTick            0                       # The tick when the warmup percentage was hit. (Tick)
board.cache_hierarchy.dptw_caches0.tags.tagAccesses            0                       # Number of tag accesses (Count)
board.cache_hierarchy.dptw_caches0.tags.dataAccesses            0                       # Number of data accesses (Count)
board.cache_hierarchy.dptw_caches0.tags.power_state.pwrStateResidencyTicks::UNDEFINED  63384404300                       # Cumulative time (in ticks) in various power states (Tick)
board.cache_hierarchy.dptw_caches1.blockedCycles::no_mshrs            0                       # number of cycles access was blocked (Cycle)
board.cache_hierarchy.dptw_caches1.blockedCycles::no_targets            0                       # number of cycles access was blocked (Cycle)
board.cache_hierarchy.dptw_caches1.blockedCauses::no_mshrs            0                       # number of times access was blocked (Count)
board.cache_hierarchy.dptw_caches1.blockedCauses::no_targets            0                       # number of times access was blocked (Count)
board.cache_hierarchy.dptw_caches1.avgBlocked::no_mshrs          nan                       # average number of cycles each access was blocked ((Cycle/Count))
board.cache_hierarchy.dptw_caches1.avgBlocked::no_targets          nan                       # average number of cycles each access was blocked ((Cycle/Count))
board.cache_hierarchy.dptw_caches1.replacements            0                       # number of replacements (Count)
board.cache_hierarchy.dptw_caches1.power_state.pwrStateResidencyTicks::UNDEFINED  63384404300                       # Cumulative time (in ticks) in various power states (Tick)
board.cache_hierarchy.dptw_caches1.tags.tagsInUse            0                       # Average ticks per tags in use ((Tick/Count))
board.cache_hierarchy.dptw_caches1.tags.totalRefs            0                       # Total number of references to valid blocks. (Count)
board.cache_hierarchy.dptw_caches1.tags.sampledRefs            0                       # Sample count of references to valid blocks. (Count)
board.cache_hierarchy.dptw_caches1.tags.avgRefs          nan                       # Average number of references to valid blocks. ((Count/Count))
board.cache_hierarchy.dptw_caches1.tags.warmupTick            0                       # The tick when the warmup percentage was hit. (Tick)
board.cache_hierarchy.dptw_caches1.tags.tagAccesses            0                       # Number of tag accesses (Count)
board.cache_hierarchy.dptw_caches1.tags.dataAccesses            0                       # Number of data accesses (Count)
board.cache_hierarchy.dptw_caches1.tags.power_state.pwrStateResidencyTicks::UNDEFINED  63384404300                       # Cumulative time (in ticks) in various power states (Tick)
board.cache_hierarchy.iptw_caches0.blockedCycles::no_mshrs            0                       # number of cycles access was blocked (Cycle)
board.cache_hierarchy.iptw_caches0.blockedCycles::no_targets            0                       # number of cycles access was blocked (Cycle)
board.cache_hierarchy.iptw_caches0.blockedCauses::no_mshrs            0                       # number of times access was blocked (Count)
board.cache_hierarchy.iptw_caches0.blockedCauses::no_targets            0                       # number of times access was blocked (Count)
board.cache_hierarchy.iptw_caches0.avgBlocked::no_mshrs          nan                       # average number of cycles each access was blocked ((Cycle/Count))
board.cache_hierarchy.iptw_caches0.avgBlocked::no_targets          nan                       # average number of cycles each access was blocked ((Cycle/Count))
board.cache_hierarchy.iptw_caches0.replacements            0                       # number of replacements (Count)
board.cache_hierarchy.iptw_caches0.power_state.pwrStateResidencyTicks::UNDEFINED  63384404300                       # Cumulative time (in ticks) in various power states (Tick)
board.cache_hierarchy.iptw_caches0.tags.tagsInUse            0                       # Average ticks per tags in use ((Tick/Count))
board.cache_hierarchy.iptw_caches0.tags.totalRefs            0                       # Total number of references to valid blocks. (Count)
board.cache_hierarchy.iptw_caches0.tags.sampledRefs            0                       # Sample count of references to valid blocks. (Count)
board.cache_hierarchy.iptw_caches0.tags.avgRefs          nan                       # Average number of references to valid blocks. ((Count/Count))
board.cache_hierarchy.iptw_caches0.tags.warmupTick            0                       # The tick when the warmup percentage was hit. (Tick)
board.cache_hierarchy.iptw_caches0.tags.tagAccesses            0                       # Number of tag accesses (Count)
board.cache_hierarchy.iptw_caches0.tags.dataAccesses            0                       # Number of data accesses (Count)
board.cache_hierarchy.iptw_caches0.tags.power_state.pwrStateResidencyTicks::UNDEFINED  63384404300                       # Cumulative time (in ticks) in various power states (Tick)
board.cache_hierarchy.iptw_caches1.blockedCycles::no_mshrs            0                       # number of cycles access was blocked (Cycle)
board.cache_hierarchy.iptw_caches1.blockedCycles::no_targets            0                       # number of cycles access was blocked (Cycle)
board.cache_hierarchy.iptw_caches1.blockedCauses::no_mshrs            0                       # number of times access was blocked (Count)
board.cache_hierarchy.iptw_caches1.blockedCauses::no_targets            0                       # number of times access was blocked (Count)
board.cache_hierarchy.iptw_caches1.avgBlocked::no_mshrs          nan                       # average number of cycles each access was blocked ((Cycle/Count))
board.cache_hierarchy.iptw_caches1.avgBlocked::no_targets          nan                       # average number of cycles each access was blocked ((Cycle/Count))
board.cache_hierarchy.iptw_caches1.replacements            0                       # number of replacements (Count)
board.cache_hierarchy.iptw_caches1.power_state.pwrStateResidencyTicks::UNDEFINED  63384404300                       # Cumulative time (in ticks) in various power states (Tick)
board.cache_hierarchy.iptw_caches1.tags.tagsInUse            0                       # Average ticks per tags in use ((Tick/Count))
board.cache_hierarchy.iptw_caches1.tags.totalRefs            0                       # Total number of references to valid blocks. (Count)
board.cache_hierarchy.iptw_caches1.tags.sampledRefs            0                       # Sample count of references to valid blocks. (Count)
board.cache_hierarchy.iptw_caches1.tags.avgRefs          nan                       # Average number of references to valid blocks. ((Count/Count))
board.cache_hierarchy.iptw_caches1.tags.warmupTick            0                       # The tick when the warmup percentage was hit. (Tick)
board.cache_hierarchy.iptw_caches1.tags.tagAccesses            0                       # Number of tag accesses (Count)
board.cache_hierarchy.iptw_caches1.tags.dataAccesses            0                       # Number of data accesses (Count)
board.cache_hierarchy.iptw_caches1.tags.power_state.pwrStateResidencyTicks::UNDEFINED  63384404300                       # Cumulative time (in ticks) in various power states (Tick)
board.cache_hierarchy.l1dcaches0.demandHits::processor.cores0.core.data      9988588                       # number of demand (read+write) hits (Count)
board.cache_hierarchy.l1dcaches0.demandHits::total      9988588                       # number of demand (read+write) hits (Count)
board.cache_hierarchy.l1dcaches0.overallHits::processor.cores0.core.data      9988588                       # number of overall hits (Count)
board.cache_hierarchy.l1dcaches0.overallHits::total      9988588                       # number of overall hits (Count)
board.cache_hierarchy.l1dcaches0.demandMisses::processor.cores0.core.data       161011                       # number of demand (read+write) misses (Count)
board.cache_hierarchy.l1dcaches0.demandMisses::total       161011                       # number of demand (read+write) misses (Count)
board.cache_hierarchy.l1dcaches0.overallMisses::processor.cores0.core.data       161011                       # number of overall misses (Count)
board.cache_hierarchy.l1dcaches0.overallMisses::total       161011                       # number of overall misses (Count)
board.cache_hierarchy.l1dcaches0.demandMissLatency::processor.cores0.core.data   3769595782                       # number of demand (read+write) miss ticks (Tick)
board.cache_hierarchy.l1dcaches0.demandMissLatency::total   3769595782                       # number of demand (read+write) miss ticks (Tick)
board.cache_hierarchy.l1dcaches0.overallMissLatency::processor.cores0.core.data   3769595782                       # number of overall miss ticks (Tick)
board.cache_hierarchy.l1dcaches0.overallMissLatency::total   3769595782                       # number of overall miss ticks (Tick)
board.cache_hierarchy.l1dcaches0.demandAccesses::processor.cores0.core.data     10149599                       # number of demand (read+write) accesses (Count)
board.cache_hierarchy.l1dcaches0.demandAccesses::total     10149599                       # number of demand (read+write) accesses (Count)
board.cache_hierarchy.l1dcaches0.overallAccesses::processor.cores0.core.data     10149599                       # number of overall (read+write) accesses (Count)
board.cache_hierarchy.l1dcaches0.overallAccesses::total     10149599                       # number of overall (read+write) accesses (Count)
board.cache_hierarchy.l1dcaches0.demandMissRate::processor.cores0.core.data     0.015864                       # miss rate for demand accesses (Ratio)
board.cache_hierarchy.l1dcaches0.demandMissRate::total     0.015864                       # miss rate for demand accesses (Ratio)
board.cache_hierarchy.l1dcaches0.overallMissRate::processor.cores0.core.data     0.015864                       # miss rate for overall accesses (Ratio)
board.cache_hierarchy.l1dcaches0.overallMissRate::total     0.015864                       # miss rate for overall accesses (Ratio)
board.cache_hierarchy.l1dcaches0.demandAvgMissLatency::processor.cores0.core.data 23412.038817                       # average overall miss latency in ticks ((Tick/Count))
board.cache_hierarchy.l1dcaches0.demandAvgMissLatency::total 23412.038817                       # average overall miss latency in ticks ((Tick/Count))
board.cache_hierarchy.l1dcaches0.overallAvgMissLatency::processor.cores0.core.data 23412.038817                       # average overall miss latency ((Tick/Count))
board.cache_hierarchy.l1dcaches0.overallAvgMissLatency::total 23412.038817                       # average overall miss latency ((Tick/Count))
board.cache_hierarchy.l1dcaches0.blockedCycles::no_mshrs            0                       # number of cycles access was blocked (Cycle)
board.cache_hierarchy.l1dcaches0.blockedCycles::no_targets         9458                       # number of cycles access was blocked (Cycle)
board.cache_hierarchy.l1dcaches0.blockedCauses::no_mshrs            0                       # number of times access was blocked (Count)
board.cache_hierarchy.l1dcaches0.blockedCauses::no_targets          573                       # number of times access was blocked (Count)
board.cache_hierarchy.l1dcaches0.avgBlocked::no_mshrs          nan                       # average number of cycles each access was blocked ((Cycle/Count))
board.cache_hierarchy.l1dcaches0.avgBlocked::no_targets    16.506108                       # average number of cycles each access was blocked ((Cycle/Count))
board.cache_hierarchy.l1dcaches0.writebacks::writebacks        39459                       # number of writebacks (Count)
board.cache_hierarchy.l1dcaches0.writebacks::total        39459                       # number of writebacks (Count)
board.cache_hierarchy.l1dcaches0.demandMshrHits::processor.cores0.core.data        90215                       # number of demand (read+write) MSHR hits (Count)
board.cache_hierarchy.l1dcaches0.demandMshrHits::total        90215                       # number of demand (read+write) MSHR hits (Count)
board.cache_hierarchy.l1dcaches0.overallMshrHits::processor.cores0.core.data        90215                       # number of overall MSHR hits (Count)
board.cache_hierarchy.l1dcaches0.overallMshrHits::total        90215                       # number of overall MSHR hits (Count)
board.cache_hierarchy.l1dcaches0.demandMshrMisses::processor.cores0.core.data        70796                       # number of demand (read+write) MSHR misses (Count)
board.cache_hierarchy.l1dcaches0.demandMshrMisses::total        70796                       # number of demand (read+write) MSHR misses (Count)
board.cache_hierarchy.l1dcaches0.overallMshrMisses::cache_hierarchy.l1dcaches0.prefetcher        20343                       # number of overall MSHR misses (Count)
board.cache_hierarchy.l1dcaches0.overallMshrMisses::processor.cores0.core.data        70796                       # number of overall MSHR misses (Count)
board.cache_hierarchy.l1dcaches0.overallMshrMisses::total        91139                       # number of overall MSHR misses (Count)
board.cache_hierarchy.l1dcaches0.demandMshrMissLatency::processor.cores0.core.data   1755214782                       # number of demand (read+write) MSHR miss ticks (Tick)
board.cache_hierarchy.l1dcaches0.demandMshrMissLatency::total   1755214782                       # number of demand (read+write) MSHR miss ticks (Tick)
board.cache_hierarchy.l1dcaches0.overallMshrMissLatency::cache_hierarchy.l1dcaches0.prefetcher    342862076                       # number of overall MSHR miss ticks (Tick)
board.cache_hierarchy.l1dcaches0.overallMshrMissLatency::processor.cores0.core.data   1755214782                       # number of overall MSHR miss ticks (Tick)
board.cache_hierarchy.l1dcaches0.overallMshrMissLatency::total   2098076858                       # number of overall MSHR miss ticks (Tick)
board.cache_hierarchy.l1dcaches0.demandMshrMissRate::processor.cores0.core.data     0.006975                       # mshr miss ratio for demand accesses (Ratio)
board.cache_hierarchy.l1dcaches0.demandMshrMissRate::total     0.006975                       # mshr miss ratio for demand accesses (Ratio)
board.cache_hierarchy.l1dcaches0.overallMshrMissRate::cache_hierarchy.l1dcaches0.prefetcher          inf                       # mshr miss ratio for overall accesses (Ratio)
board.cache_hierarchy.l1dcaches0.overallMshrMissRate::processor.cores0.core.data     0.006975                       # mshr miss ratio for overall accesses (Ratio)
board.cache_hierarchy.l1dcaches0.overallMshrMissRate::total     0.008980                       # mshr miss ratio for overall accesses (Ratio)
board.cache_hierarchy.l1dcaches0.demandAvgMshrMissLatency::processor.cores0.core.data 24792.569947                       # average overall mshr miss latency ((Tick/Count))
board.cache_hierarchy.l1dcaches0.demandAvgMshrMissLatency::total 24792.569947                       # average overall mshr miss latency ((Tick/Count))
board.cache_hierarchy.l1dcaches0.overallAvgMshrMissLatency::cache_hierarchy.l1dcaches0.prefetcher 16854.056727                       # average overall mshr miss latency ((Tick/Count))
board.cache_hierarchy.l1dcaches0.overallAvgMshrMissLatency::processor.cores0.core.data 24792.569947                       # average overall mshr miss latency ((Tick/Count))
board.cache_hierarchy.l1dcaches0.overallAvgMshrMissLatency::total 23020.626274                       # average overall mshr miss latency ((Tick/Count))
board.cache_hierarchy.l1dcaches0.replacements        67233                       # number of replacements (Count)
board.cache_hierarchy.l1dcaches0.HardPFReq.mshrMisses::cache_hierarchy.l1dcaches0.prefetcher        20343                       # number of HardPFReq MSHR misses (Count)
board.cache_hierarchy.l1dcaches0.HardPFReq.mshrMisses::total        20343                       # number of HardPFReq MSHR misses (Count)
board.cache_hierarchy.l1dcaches0.HardPFReq.mshrMissLatency::cache_hierarchy.l1dcaches0.prefetcher    342862076                       # number of HardPFReq MSHR miss ticks (Tick)
board.cache_hierarchy.l1dcaches0.HardPFReq.mshrMissLatency::total    342862076                       # number of HardPFReq MSHR miss ticks (Tick)
board.cache_hierarchy.l1dcaches0.HardPFReq.mshrMissRate::cache_hierarchy.l1dcaches0.prefetcher          inf                       # mshr miss rate for HardPFReq accesses (Ratio)
board.cache_hierarchy.l1dcaches0.HardPFReq.mshrMissRate::total          inf                       # mshr miss rate for HardPFReq accesses (Ratio)
board.cache_hierarchy.l1dcaches0.HardPFReq.avgMshrMissLatency::cache_hierarchy.l1dcaches0.prefetcher 16854.056727                       # average HardPFReq mshr miss latency ((Tick/Count))
board.cache_hierarchy.l1dcaches0.HardPFReq.avgMshrMissLatency::total 16854.056727                       # average HardPFReq mshr miss latency ((Tick/Count))
board.cache_hierarchy.l1dcaches0.LoadLockedReq.hits::processor.cores0.core.data         2114                       # number of LoadLockedReq hits (Count)
board.cache_hierarchy.l1dcaches0.LoadLockedReq.hits::total         2114                       # number of LoadLockedReq hits (Count)
board.cache_hierarchy.l1dcaches0.LoadLockedReq.misses::processor.cores0.core.data          561                       # number of LoadLockedReq misses (Count)
board.cache_hierarchy.l1dcaches0.LoadLockedReq.misses::total          561                       # number of LoadLockedReq misses (Count)
board.cache_hierarchy.l1dcaches0.LoadLockedReq.missLatency::processor.cores0.core.data     17000300                       # number of LoadLockedReq miss ticks (Tick)
board.cache_hierarchy.l1dcaches0.LoadLockedReq.missLatency::total     17000300                       # number of LoadLockedReq miss ticks (Tick)
board.cache_hierarchy.l1dcaches0.LoadLockedReq.accesses::processor.cores0.core.data         2675                       # number of LoadLockedReq accesses(hits+misses) (Count)
board.cache_hierarchy.l1dcaches0.LoadLockedReq.accesses::total         2675                       # number of LoadLockedReq accesses(hits+misses) (Count)
board.cache_hierarchy.l1dcaches0.LoadLockedReq.missRate::processor.cores0.core.data     0.209720                       # miss rate for LoadLockedReq accesses (Ratio)
board.cache_hierarchy.l1dcaches0.LoadLockedReq.missRate::total     0.209720                       # miss rate for LoadLockedReq accesses (Ratio)
board.cache_hierarchy.l1dcaches0.LoadLockedReq.avgMissLatency::processor.cores0.core.data 30303.565062                       # average LoadLockedReq miss latency ((Tick/Count))
board.cache_hierarchy.l1dcaches0.LoadLockedReq.avgMissLatency::total 30303.565062                       # average LoadLockedReq miss latency ((Tick/Count))
board.cache_hierarchy.l1dcaches0.LoadLockedReq.mshrHits::processor.cores0.core.data          537                       # number of LoadLockedReq MSHR hits (Count)
board.cache_hierarchy.l1dcaches0.LoadLockedReq.mshrHits::total          537                       # number of LoadLockedReq MSHR hits (Count)
board.cache_hierarchy.l1dcaches0.LoadLockedReq.mshrMisses::processor.cores0.core.data           24                       # number of LoadLockedReq MSHR misses (Count)
board.cache_hierarchy.l1dcaches0.LoadLockedReq.mshrMisses::total           24                       # number of LoadLockedReq MSHR misses (Count)
board.cache_hierarchy.l1dcaches0.LoadLockedReq.mshrMissLatency::processor.cores0.core.data       876600                       # number of LoadLockedReq MSHR miss ticks (Tick)
board.cache_hierarchy.l1dcaches0.LoadLockedReq.mshrMissLatency::total       876600                       # number of LoadLockedReq MSHR miss ticks (Tick)
board.cache_hierarchy.l1dcaches0.LoadLockedReq.mshrMissRate::processor.cores0.core.data     0.008972                       # mshr miss rate for LoadLockedReq accesses (Ratio)
board.cache_hierarchy.l1dcaches0.LoadLockedReq.mshrMissRate::total     0.008972                       # mshr miss rate for LoadLockedReq accesses (Ratio)
board.cache_hierarchy.l1dcaches0.LoadLockedReq.avgMshrMissLatency::processor.cores0.core.data        36525                       # average LoadLockedReq mshr miss latency ((Tick/Count))
board.cache_hierarchy.l1dcaches0.LoadLockedReq.avgMshrMissLatency::total        36525                       # average LoadLockedReq mshr miss latency ((Tick/Count))
board.cache_hierarchy.l1dcaches0.ReadReq.hits::processor.cores0.core.data      8408561                       # number of ReadReq hits (Count)
board.cache_hierarchy.l1dcaches0.ReadReq.hits::total      8408561                       # number of ReadReq hits (Count)
board.cache_hierarchy.l1dcaches0.ReadReq.misses::processor.cores0.core.data        79942                       # number of ReadReq misses (Count)
board.cache_hierarchy.l1dcaches0.ReadReq.misses::total        79942                       # number of ReadReq misses (Count)
board.cache_hierarchy.l1dcaches0.ReadReq.missLatency::processor.cores0.core.data   1525937000                       # number of ReadReq miss ticks (Tick)
board.cache_hierarchy.l1dcaches0.ReadReq.missLatency::total   1525937000                       # number of ReadReq miss ticks (Tick)
board.cache_hierarchy.l1dcaches0.ReadReq.accesses::processor.cores0.core.data      8488503                       # number of ReadReq accesses(hits+misses) (Count)
board.cache_hierarchy.l1dcaches0.ReadReq.accesses::total      8488503                       # number of ReadReq accesses(hits+misses) (Count)
board.cache_hierarchy.l1dcaches0.ReadReq.missRate::processor.cores0.core.data     0.009418                       # miss rate for ReadReq accesses (Ratio)
board.cache_hierarchy.l1dcaches0.ReadReq.missRate::total     0.009418                       # miss rate for ReadReq accesses (Ratio)
board.cache_hierarchy.l1dcaches0.ReadReq.avgMissLatency::processor.cores0.core.data 19088.051337                       # average ReadReq miss latency ((Tick/Count))
board.cache_hierarchy.l1dcaches0.ReadReq.avgMissLatency::total 19088.051337                       # average ReadReq miss latency ((Tick/Count))
board.cache_hierarchy.l1dcaches0.ReadReq.mshrHits::processor.cores0.core.data        40502                       # number of ReadReq MSHR hits (Count)
board.cache_hierarchy.l1dcaches0.ReadReq.mshrHits::total        40502                       # number of ReadReq MSHR hits (Count)
board.cache_hierarchy.l1dcaches0.ReadReq.mshrMisses::processor.cores0.core.data        39440                       # number of ReadReq MSHR misses (Count)
board.cache_hierarchy.l1dcaches0.ReadReq.mshrMisses::total        39440                       # number of ReadReq MSHR misses (Count)
board.cache_hierarchy.l1dcaches0.ReadReq.mshrMissLatency::processor.cores0.core.data    757413900                       # number of ReadReq MSHR miss ticks (Tick)
board.cache_hierarchy.l1dcaches0.ReadReq.mshrMissLatency::total    757413900                       # number of ReadReq MSHR miss ticks (Tick)
board.cache_hierarchy.l1dcaches0.ReadReq.mshrMissRate::processor.cores0.core.data     0.004646                       # mshr miss rate for ReadReq accesses (Ratio)
board.cache_hierarchy.l1dcaches0.ReadReq.mshrMissRate::total     0.004646                       # mshr miss rate for ReadReq accesses (Ratio)
board.cache_hierarchy.l1dcaches0.ReadReq.avgMshrMissLatency::processor.cores0.core.data 19204.206389                       # average ReadReq mshr miss latency ((Tick/Count))
board.cache_hierarchy.l1dcaches0.ReadReq.avgMshrMissLatency::total 19204.206389                       # average ReadReq mshr miss latency ((Tick/Count))
board.cache_hierarchy.l1dcaches0.StoreCondFailReq.missLatency::processor.cores0.core.data        46600                       # number of StoreCondFailReq miss ticks (Tick)
board.cache_hierarchy.l1dcaches0.StoreCondFailReq.missLatency::total        46600                       # number of StoreCondFailReq miss ticks (Tick)
board.cache_hierarchy.l1dcaches0.StoreCondFailReq.avgMissLatency::processor.cores0.core.data          inf                       # average StoreCondFailReq miss latency ((Tick/Count))
board.cache_hierarchy.l1dcaches0.StoreCondFailReq.avgMissLatency::total          inf                       # average StoreCondFailReq miss latency ((Tick/Count))
board.cache_hierarchy.l1dcaches0.StoreCondFailReq.mshrMissLatency::processor.cores0.core.data        44700                       # number of StoreCondFailReq MSHR miss ticks (Tick)
board.cache_hierarchy.l1dcaches0.StoreCondFailReq.mshrMissLatency::total        44700                       # number of StoreCondFailReq MSHR miss ticks (Tick)
board.cache_hierarchy.l1dcaches0.StoreCondFailReq.avgMshrMissLatency::processor.cores0.core.data          inf                       # average StoreCondFailReq mshr miss latency ((Tick/Count))
board.cache_hierarchy.l1dcaches0.StoreCondFailReq.avgMshrMissLatency::total          inf                       # average StoreCondFailReq mshr miss latency ((Tick/Count))
board.cache_hierarchy.l1dcaches0.StoreCondReq.hits::processor.cores0.core.data         1338                       # number of StoreCondReq hits (Count)
board.cache_hierarchy.l1dcaches0.StoreCondReq.hits::total         1338                       # number of StoreCondReq hits (Count)
board.cache_hierarchy.l1dcaches0.StoreCondReq.misses::processor.cores0.core.data          648                       # number of StoreCondReq misses (Count)
board.cache_hierarchy.l1dcaches0.StoreCondReq.misses::total          648                       # number of StoreCondReq misses (Count)
board.cache_hierarchy.l1dcaches0.StoreCondReq.missLatency::processor.cores0.core.data     22478000                       # number of StoreCondReq miss ticks (Tick)
board.cache_hierarchy.l1dcaches0.StoreCondReq.missLatency::total     22478000                       # number of StoreCondReq miss ticks (Tick)
board.cache_hierarchy.l1dcaches0.StoreCondReq.accesses::processor.cores0.core.data         1986                       # number of StoreCondReq accesses(hits+misses) (Count)
board.cache_hierarchy.l1dcaches0.StoreCondReq.accesses::total         1986                       # number of StoreCondReq accesses(hits+misses) (Count)
board.cache_hierarchy.l1dcaches0.StoreCondReq.missRate::processor.cores0.core.data     0.326284                       # miss rate for StoreCondReq accesses (Ratio)
board.cache_hierarchy.l1dcaches0.StoreCondReq.missRate::total     0.326284                       # miss rate for StoreCondReq accesses (Ratio)
board.cache_hierarchy.l1dcaches0.StoreCondReq.avgMissLatency::processor.cores0.core.data 34688.271605                       # average StoreCondReq miss latency ((Tick/Count))
board.cache_hierarchy.l1dcaches0.StoreCondReq.avgMissLatency::total 34688.271605                       # average StoreCondReq miss latency ((Tick/Count))
board.cache_hierarchy.l1dcaches0.StoreCondReq.mshrMisses::processor.cores0.core.data          648                       # number of StoreCondReq MSHR misses (Count)
board.cache_hierarchy.l1dcaches0.StoreCondReq.mshrMisses::total          648                       # number of StoreCondReq MSHR misses (Count)
board.cache_hierarchy.l1dcaches0.StoreCondReq.mshrMissLatency::processor.cores0.core.data     21254200                       # number of StoreCondReq MSHR miss ticks (Tick)
board.cache_hierarchy.l1dcaches0.StoreCondReq.mshrMissLatency::total     21254200                       # number of StoreCondReq MSHR miss ticks (Tick)
board.cache_hierarchy.l1dcaches0.StoreCondReq.mshrMissRate::processor.cores0.core.data     0.326284                       # mshr miss rate for StoreCondReq accesses (Ratio)
board.cache_hierarchy.l1dcaches0.StoreCondReq.mshrMissRate::total     0.326284                       # mshr miss rate for StoreCondReq accesses (Ratio)
board.cache_hierarchy.l1dcaches0.StoreCondReq.avgMshrMissLatency::processor.cores0.core.data 32799.691358                       # average StoreCondReq mshr miss latency ((Tick/Count))
board.cache_hierarchy.l1dcaches0.StoreCondReq.avgMshrMissLatency::total 32799.691358                       # average StoreCondReq mshr miss latency ((Tick/Count))
board.cache_hierarchy.l1dcaches0.SwapReq.hits::processor.cores0.core.data        17659                       # number of SwapReq hits (Count)
board.cache_hierarchy.l1dcaches0.SwapReq.hits::total        17659                       # number of SwapReq hits (Count)
board.cache_hierarchy.l1dcaches0.SwapReq.misses::processor.cores0.core.data        16859                       # number of SwapReq misses (Count)
board.cache_hierarchy.l1dcaches0.SwapReq.misses::total        16859                       # number of SwapReq misses (Count)
board.cache_hierarchy.l1dcaches0.SwapReq.missLatency::processor.cores0.core.data    581703500                       # number of SwapReq miss ticks (Tick)
board.cache_hierarchy.l1dcaches0.SwapReq.missLatency::total    581703500                       # number of SwapReq miss ticks (Tick)
board.cache_hierarchy.l1dcaches0.SwapReq.accesses::processor.cores0.core.data        34518                       # number of SwapReq accesses(hits+misses) (Count)
board.cache_hierarchy.l1dcaches0.SwapReq.accesses::total        34518                       # number of SwapReq accesses(hits+misses) (Count)
board.cache_hierarchy.l1dcaches0.SwapReq.missRate::processor.cores0.core.data     0.488412                       # miss rate for SwapReq accesses (Ratio)
board.cache_hierarchy.l1dcaches0.SwapReq.missRate::total     0.488412                       # miss rate for SwapReq accesses (Ratio)
board.cache_hierarchy.l1dcaches0.SwapReq.avgMissLatency::processor.cores0.core.data 34504.033454                       # average SwapReq miss latency ((Tick/Count))
board.cache_hierarchy.l1dcaches0.SwapReq.avgMissLatency::total 34504.033454                       # average SwapReq miss latency ((Tick/Count))
board.cache_hierarchy.l1dcaches0.SwapReq.mshrMisses::processor.cores0.core.data        16859                       # number of SwapReq MSHR misses (Count)
board.cache_hierarchy.l1dcaches0.SwapReq.mshrMisses::total        16859                       # number of SwapReq MSHR misses (Count)
board.cache_hierarchy.l1dcaches0.SwapReq.mshrMissLatency::processor.cores0.core.data    549707400                       # number of SwapReq MSHR miss ticks (Tick)
board.cache_hierarchy.l1dcaches0.SwapReq.mshrMissLatency::total    549707400                       # number of SwapReq MSHR miss ticks (Tick)
board.cache_hierarchy.l1dcaches0.SwapReq.mshrMissRate::processor.cores0.core.data     0.488412                       # mshr miss rate for SwapReq accesses (Ratio)
board.cache_hierarchy.l1dcaches0.SwapReq.mshrMissRate::total     0.488412                       # mshr miss rate for SwapReq accesses (Ratio)
board.cache_hierarchy.l1dcaches0.SwapReq.avgMshrMissLatency::processor.cores0.core.data 32606.168812                       # average SwapReq mshr miss latency ((Tick/Count))
board.cache_hierarchy.l1dcaches0.SwapReq.avgMshrMissLatency::total 32606.168812                       # average SwapReq mshr miss latency ((Tick/Count))
board.cache_hierarchy.l1dcaches0.WriteReq.hits::processor.cores0.core.data      1580027                       # number of WriteReq hits (Count)
board.cache_hierarchy.l1dcaches0.WriteReq.hits::total      1580027                       # number of WriteReq hits (Count)
board.cache_hierarchy.l1dcaches0.WriteReq.misses::processor.cores0.core.data        81069                       # number of WriteReq misses (Count)
board.cache_hierarchy.l1dcaches0.WriteReq.misses::total        81069                       # number of WriteReq misses (Count)
board.cache_hierarchy.l1dcaches0.WriteReq.missLatency::processor.cores0.core.data   2243658782                       # number of WriteReq miss ticks (Tick)
board.cache_hierarchy.l1dcaches0.WriteReq.missLatency::total   2243658782                       # number of WriteReq miss ticks (Tick)
board.cache_hierarchy.l1dcaches0.WriteReq.accesses::processor.cores0.core.data      1661096                       # number of WriteReq accesses(hits+misses) (Count)
board.cache_hierarchy.l1dcaches0.WriteReq.accesses::total      1661096                       # number of WriteReq accesses(hits+misses) (Count)
board.cache_hierarchy.l1dcaches0.WriteReq.missRate::processor.cores0.core.data     0.048805                       # miss rate for WriteReq accesses (Ratio)
board.cache_hierarchy.l1dcaches0.WriteReq.missRate::total     0.048805                       # miss rate for WriteReq accesses (Ratio)
board.cache_hierarchy.l1dcaches0.WriteReq.avgMissLatency::processor.cores0.core.data 27675.915356                       # average WriteReq miss latency ((Tick/Count))
board.cache_hierarchy.l1dcaches0.WriteReq.avgMissLatency::total 27675.915356                       # average WriteReq miss latency ((Tick/Count))
board.cache_hierarchy.l1dcaches0.WriteReq.mshrHits::processor.cores0.core.data        49713                       # number of WriteReq MSHR hits (Count)
board.cache_hierarchy.l1dcaches0.WriteReq.mshrHits::total        49713                       # number of WriteReq MSHR hits (Count)
board.cache_hierarchy.l1dcaches0.WriteReq.mshrMisses::processor.cores0.core.data        31356                       # number of WriteReq MSHR misses (Count)
board.cache_hierarchy.l1dcaches0.WriteReq.mshrMisses::total        31356                       # number of WriteReq MSHR misses (Count)
board.cache_hierarchy.l1dcaches0.WriteReq.mshrMissLatency::processor.cores0.core.data    997800882                       # number of WriteReq MSHR miss ticks (Tick)
board.cache_hierarchy.l1dcaches0.WriteReq.mshrMissLatency::total    997800882                       # number of WriteReq MSHR miss ticks (Tick)
board.cache_hierarchy.l1dcaches0.WriteReq.mshrMissRate::processor.cores0.core.data     0.018877                       # mshr miss rate for WriteReq accesses (Ratio)
board.cache_hierarchy.l1dcaches0.WriteReq.mshrMissRate::total     0.018877                       # mshr miss rate for WriteReq accesses (Ratio)
board.cache_hierarchy.l1dcaches0.WriteReq.avgMshrMissLatency::processor.cores0.core.data 31821.689055                       # average WriteReq mshr miss latency ((Tick/Count))
board.cache_hierarchy.l1dcaches0.WriteReq.avgMshrMissLatency::total 31821.689055                       # average WriteReq mshr miss latency ((Tick/Count))
board.cache_hierarchy.l1dcaches0.power_state.pwrStateResidencyTicks::UNDEFINED  63384404300                       # Cumulative time (in ticks) in various power states (Tick)
board.cache_hierarchy.l1dcaches0.prefetcher.demandMshrMisses        70796                       # demands not covered by prefetchs (Count)
board.cache_hierarchy.l1dcaches0.prefetcher.pfIssued        60099                       # number of hwpf issued (Count)
board.cache_hierarchy.l1dcaches0.prefetcher.pfUnused         4675                       # number of HardPF blocks evicted w/o reference (Count)
board.cache_hierarchy.l1dcaches0.prefetcher.pfUseful        44383                       # number of useful prefetch (Count)
board.cache_hierarchy.l1dcaches0.prefetcher.pfUsefulButMiss        29224                       # number of hit on prefetch but cache block is not in an usable state (Count)
board.cache_hierarchy.l1dcaches0.prefetcher.accuracy     0.738498                       # accuracy of the prefetcher (Count)
board.cache_hierarchy.l1dcaches0.prefetcher.coverage     0.385339                       # coverage brought by this prefetcher (Count)
board.cache_hierarchy.l1dcaches0.prefetcher.pfHitInCache        30848                       # number of prefetches hitting in cache (Count)
board.cache_hierarchy.l1dcaches0.prefetcher.pfHitInMSHR         8907                       # number of prefetches hitting in a MSHR (Count)
board.cache_hierarchy.l1dcaches0.prefetcher.pfHitInWB            1                       # number of prefetches hit in the Write Buffer (Count)
board.cache_hierarchy.l1dcaches0.prefetcher.pfLate        39756                       # number of late prefetches (hitting in cache, MSHR or WB) (Count)
board.cache_hierarchy.l1dcaches0.prefetcher.pfIdentified       188473                       # number of prefetch candidates identified (Count)
board.cache_hierarchy.l1dcaches0.prefetcher.pfBufferHit        95156                       # number of redundant prefetches already in prefetch queue (Count)
board.cache_hierarchy.l1dcaches0.prefetcher.pfInCache            0                       # number of redundant prefetches already in cache/mshr dropped (Count)
board.cache_hierarchy.l1dcaches0.prefetcher.pfRemovedDemand         1850                       # number of prefetches dropped due to a demand for the same address (Count)
board.cache_hierarchy.l1dcaches0.prefetcher.pfRemovedFull            0                       # number of prefetches dropped due to prefetch queue size (Count)
board.cache_hierarchy.l1dcaches0.prefetcher.pfSpanPage        13347                       # number of prefetches that crossed the page (Count)
board.cache_hierarchy.l1dcaches0.prefetcher.pfUsefulSpanPage         5714                       # number of prefetches that is useful and crossed the page (Count)
board.cache_hierarchy.l1dcaches0.prefetcher.power_state.pwrStateResidencyTicks::UNDEFINED  63384404300                       # Cumulative time (in ticks) in various power states (Tick)
board.cache_hierarchy.l1dcaches0.tags.tagsInUse   508.930918                       # Average ticks per tags in use ((Tick/Count))
board.cache_hierarchy.l1dcaches0.tags.totalRefs     10150606                       # Total number of references to valid blocks. (Count)
board.cache_hierarchy.l1dcaches0.tags.sampledRefs       100083                       # Sample count of references to valid blocks. (Count)
board.cache_hierarchy.l1dcaches0.tags.avgRefs   101.421880                       # Average number of references to valid blocks. ((Count/Count))
board.cache_hierarchy.l1dcaches0.tags.warmupTick       230100                       # The tick when the warmup percentage was hit. (Tick)
board.cache_hierarchy.l1dcaches0.tags.occupancies::cache_hierarchy.l1dcaches0.prefetcher   119.564248                       # Average occupied blocks per tick, per requestor ((Count/Tick))
board.cache_hierarchy.l1dcaches0.tags.occupancies::processor.cores0.core.data   389.366669                       # Average occupied blocks per tick, per requestor ((Count/Tick))
board.cache_hierarchy.l1dcaches0.tags.avgOccs::cache_hierarchy.l1dcaches0.prefetcher     0.233524                       # Average percentage of cache occupancy ((Ratio/Tick))
board.cache_hierarchy.l1dcaches0.tags.avgOccs::processor.cores0.core.data     0.760482                       # Average percentage of cache occupancy ((Ratio/Tick))
board.cache_hierarchy.l1dcaches0.tags.avgOccs::total     0.994006                       # Average percentage of cache occupancy ((Ratio/Tick))
board.cache_hierarchy.l1dcaches0.tags.occupanciesTaskId::1022           42                       # Occupied blocks per task id (Count)
board.cache_hierarchy.l1dcaches0.tags.occupanciesTaskId::1024          470                       # Occupied blocks per task id (Count)
board.cache_hierarchy.l1dcaches0.tags.ageTaskId_1022::0            4                       # Occupied blocks per task id, per block age (Count)
board.cache_hierarchy.l1dcaches0.tags.ageTaskId_1022::1           33                       # Occupied blocks per task id, per block age (Count)
board.cache_hierarchy.l1dcaches0.tags.ageTaskId_1022::2            1                       # Occupied blocks per task id, per block age (Count)
board.cache_hierarchy.l1dcaches0.tags.ageTaskId_1022::3            4                       # Occupied blocks per task id, per block age (Count)
board.cache_hierarchy.l1dcaches0.tags.ageTaskId_1024::0           92                       # Occupied blocks per task id, per block age (Count)
board.cache_hierarchy.l1dcaches0.tags.ageTaskId_1024::1          217                       # Occupied blocks per task id, per block age (Count)
board.cache_hierarchy.l1dcaches0.tags.ageTaskId_1024::2          100                       # Occupied blocks per task id, per block age (Count)
board.cache_hierarchy.l1dcaches0.tags.ageTaskId_1024::3           61                       # Occupied blocks per task id, per block age (Count)
board.cache_hierarchy.l1dcaches0.tags.ratioOccsTaskId::1022     0.082031                       # Ratio of occupied blocks and all blocks, per task id (Ratio)
board.cache_hierarchy.l1dcaches0.tags.ratioOccsTaskId::1024     0.917969                       # Ratio of occupied blocks and all blocks, per task id (Ratio)
board.cache_hierarchy.l1dcaches0.tags.tagAccesses     81610307                       # Number of tag accesses (Count)
board.cache_hierarchy.l1dcaches0.tags.dataAccesses     81610307                       # Number of data accesses (Count)
board.cache_hierarchy.l1dcaches0.tags.power_state.pwrStateResidencyTicks::UNDEFINED  63384404300                       # Cumulative time (in ticks) in various power states (Tick)
board.cache_hierarchy.l1dcaches1.demandHits::processor.cores1.core.data      7843393                       # number of demand (read+write) hits (Count)
board.cache_hierarchy.l1dcaches1.demandHits::total      7843393                       # number of demand (read+write) hits (Count)
board.cache_hierarchy.l1dcaches1.overallHits::processor.cores1.core.data      7843393                       # number of overall hits (Count)
board.cache_hierarchy.l1dcaches1.overallHits::total      7843393                       # number of overall hits (Count)
board.cache_hierarchy.l1dcaches1.demandMisses::processor.cores1.core.data       136134                       # number of demand (read+write) misses (Count)
board.cache_hierarchy.l1dcaches1.demandMisses::total       136134                       # number of demand (read+write) misses (Count)
board.cache_hierarchy.l1dcaches1.overallMisses::processor.cores1.core.data       136134                       # number of overall misses (Count)
board.cache_hierarchy.l1dcaches1.overallMisses::total       136134                       # number of overall misses (Count)
board.cache_hierarchy.l1dcaches1.demandMissLatency::processor.cores1.core.data   3116233565                       # number of demand (read+write) miss ticks (Tick)
board.cache_hierarchy.l1dcaches1.demandMissLatency::total   3116233565                       # number of demand (read+write) miss ticks (Tick)
board.cache_hierarchy.l1dcaches1.overallMissLatency::processor.cores1.core.data   3116233565                       # number of overall miss ticks (Tick)
board.cache_hierarchy.l1dcaches1.overallMissLatency::total   3116233565                       # number of overall miss ticks (Tick)
board.cache_hierarchy.l1dcaches1.demandAccesses::processor.cores1.core.data      7979527                       # number of demand (read+write) accesses (Count)
board.cache_hierarchy.l1dcaches1.demandAccesses::total      7979527                       # number of demand (read+write) accesses (Count)
board.cache_hierarchy.l1dcaches1.overallAccesses::processor.cores1.core.data      7979527                       # number of overall (read+write) accesses (Count)
board.cache_hierarchy.l1dcaches1.overallAccesses::total      7979527                       # number of overall (read+write) accesses (Count)
board.cache_hierarchy.l1dcaches1.demandMissRate::processor.cores1.core.data     0.017060                       # miss rate for demand accesses (Ratio)
board.cache_hierarchy.l1dcaches1.demandMissRate::total     0.017060                       # miss rate for demand accesses (Ratio)
board.cache_hierarchy.l1dcaches1.overallMissRate::processor.cores1.core.data     0.017060                       # miss rate for overall accesses (Ratio)
board.cache_hierarchy.l1dcaches1.overallMissRate::total     0.017060                       # miss rate for overall accesses (Ratio)
board.cache_hierarchy.l1dcaches1.demandAvgMissLatency::processor.cores1.core.data 22890.927799                       # average overall miss latency in ticks ((Tick/Count))
board.cache_hierarchy.l1dcaches1.demandAvgMissLatency::total 22890.927799                       # average overall miss latency in ticks ((Tick/Count))
board.cache_hierarchy.l1dcaches1.overallAvgMissLatency::processor.cores1.core.data 22890.927799                       # average overall miss latency ((Tick/Count))
board.cache_hierarchy.l1dcaches1.overallAvgMissLatency::total 22890.927799                       # average overall miss latency ((Tick/Count))
board.cache_hierarchy.l1dcaches1.blockedCycles::no_mshrs            0                       # number of cycles access was blocked (Cycle)
board.cache_hierarchy.l1dcaches1.blockedCycles::no_targets         6640                       # number of cycles access was blocked (Cycle)
board.cache_hierarchy.l1dcaches1.blockedCauses::no_mshrs            0                       # number of times access was blocked (Count)
board.cache_hierarchy.l1dcaches1.blockedCauses::no_targets          450                       # number of times access was blocked (Count)
board.cache_hierarchy.l1dcaches1.avgBlocked::no_mshrs          nan                       # average number of cycles each access was blocked ((Cycle/Count))
board.cache_hierarchy.l1dcaches1.avgBlocked::no_targets    14.755556                       # average number of cycles each access was blocked ((Cycle/Count))
board.cache_hierarchy.l1dcaches1.writebacks::writebacks        32367                       # number of writebacks (Count)
board.cache_hierarchy.l1dcaches1.writebacks::total        32367                       # number of writebacks (Count)
board.cache_hierarchy.l1dcaches1.demandMshrHits::processor.cores1.core.data        74071                       # number of demand (read+write) MSHR hits (Count)
board.cache_hierarchy.l1dcaches1.demandMshrHits::total        74071                       # number of demand (read+write) MSHR hits (Count)
board.cache_hierarchy.l1dcaches1.overallMshrHits::processor.cores1.core.data        74071                       # number of overall MSHR hits (Count)
board.cache_hierarchy.l1dcaches1.overallMshrHits::total        74071                       # number of overall MSHR hits (Count)
board.cache_hierarchy.l1dcaches1.demandMshrMisses::processor.cores1.core.data        62063                       # number of demand (read+write) MSHR misses (Count)
board.cache_hierarchy.l1dcaches1.demandMshrMisses::total        62063                       # number of demand (read+write) MSHR misses (Count)
board.cache_hierarchy.l1dcaches1.overallMshrMisses::cache_hierarchy.l1dcaches1.prefetcher        17373                       # number of overall MSHR misses (Count)
board.cache_hierarchy.l1dcaches1.overallMshrMisses::processor.cores1.core.data        62063                       # number of overall MSHR misses (Count)
board.cache_hierarchy.l1dcaches1.overallMshrMisses::total        79436                       # number of overall MSHR misses (Count)
board.cache_hierarchy.l1dcaches1.demandMshrMissLatency::processor.cores1.core.data   1539538599                       # number of demand (read+write) MSHR miss ticks (Tick)
board.cache_hierarchy.l1dcaches1.demandMshrMissLatency::total   1539538599                       # number of demand (read+write) MSHR miss ticks (Tick)
board.cache_hierarchy.l1dcaches1.overallMshrMissLatency::cache_hierarchy.l1dcaches1.prefetcher    228989382                       # number of overall MSHR miss ticks (Tick)
board.cache_hierarchy.l1dcaches1.overallMshrMissLatency::processor.cores1.core.data   1539538599                       # number of overall MSHR miss ticks (Tick)
board.cache_hierarchy.l1dcaches1.overallMshrMissLatency::total   1768527981                       # number of overall MSHR miss ticks (Tick)
board.cache_hierarchy.l1dcaches1.demandMshrMissRate::processor.cores1.core.data     0.007778                       # mshr miss ratio for demand accesses (Ratio)
board.cache_hierarchy.l1dcaches1.demandMshrMissRate::total     0.007778                       # mshr miss ratio for demand accesses (Ratio)
board.cache_hierarchy.l1dcaches1.overallMshrMissRate::cache_hierarchy.l1dcaches1.prefetcher          inf                       # mshr miss ratio for overall accesses (Ratio)
board.cache_hierarchy.l1dcaches1.overallMshrMissRate::processor.cores1.core.data     0.007778                       # mshr miss ratio for overall accesses (Ratio)
board.cache_hierarchy.l1dcaches1.overallMshrMissRate::total     0.009955                       # mshr miss ratio for overall accesses (Ratio)
board.cache_hierarchy.l1dcaches1.demandAvgMshrMissLatency::processor.cores1.core.data 24806.061566                       # average overall mshr miss latency ((Tick/Count))
board.cache_hierarchy.l1dcaches1.demandAvgMshrMissLatency::total 24806.061566                       # average overall mshr miss latency ((Tick/Count))
board.cache_hierarchy.l1dcaches1.overallAvgMshrMissLatency::cache_hierarchy.l1dcaches1.prefetcher 13180.762217                       # average overall mshr miss latency ((Tick/Count))
board.cache_hierarchy.l1dcaches1.overallAvgMshrMissLatency::processor.cores1.core.data 24806.061566                       # average overall mshr miss latency ((Tick/Count))
board.cache_hierarchy.l1dcaches1.overallAvgMshrMissLatency::total 22263.557845                       # average overall mshr miss latency ((Tick/Count))
board.cache_hierarchy.l1dcaches1.replacements        57130                       # number of replacements (Count)
board.cache_hierarchy.l1dcaches1.HardPFReq.mshrMisses::cache_hierarchy.l1dcaches1.prefetcher        17373                       # number of HardPFReq MSHR misses (Count)
board.cache_hierarchy.l1dcaches1.HardPFReq.mshrMisses::total        17373                       # number of HardPFReq MSHR misses (Count)
board.cache_hierarchy.l1dcaches1.HardPFReq.mshrMissLatency::cache_hierarchy.l1dcaches1.prefetcher    228989382                       # number of HardPFReq MSHR miss ticks (Tick)
board.cache_hierarchy.l1dcaches1.HardPFReq.mshrMissLatency::total    228989382                       # number of HardPFReq MSHR miss ticks (Tick)
board.cache_hierarchy.l1dcaches1.HardPFReq.mshrMissRate::cache_hierarchy.l1dcaches1.prefetcher          inf                       # mshr miss rate for HardPFReq accesses (Ratio)
board.cache_hierarchy.l1dcaches1.HardPFReq.mshrMissRate::total          inf                       # mshr miss rate for HardPFReq accesses (Ratio)
board.cache_hierarchy.l1dcaches1.HardPFReq.avgMshrMissLatency::cache_hierarchy.l1dcaches1.prefetcher 13180.762217                       # average HardPFReq mshr miss latency ((Tick/Count))
board.cache_hierarchy.l1dcaches1.HardPFReq.avgMshrMissLatency::total 13180.762217                       # average HardPFReq mshr miss latency ((Tick/Count))
board.cache_hierarchy.l1dcaches1.LoadLockedReq.hits::processor.cores1.core.data         1620                       # number of LoadLockedReq hits (Count)
board.cache_hierarchy.l1dcaches1.LoadLockedReq.hits::total         1620                       # number of LoadLockedReq hits (Count)
board.cache_hierarchy.l1dcaches1.LoadLockedReq.misses::processor.cores1.core.data          825                       # number of LoadLockedReq misses (Count)
board.cache_hierarchy.l1dcaches1.LoadLockedReq.misses::total          825                       # number of LoadLockedReq misses (Count)
board.cache_hierarchy.l1dcaches1.LoadLockedReq.missLatency::processor.cores1.core.data     26572900                       # number of LoadLockedReq miss ticks (Tick)
board.cache_hierarchy.l1dcaches1.LoadLockedReq.missLatency::total     26572900                       # number of LoadLockedReq miss ticks (Tick)
board.cache_hierarchy.l1dcaches1.LoadLockedReq.accesses::processor.cores1.core.data         2445                       # number of LoadLockedReq accesses(hits+misses) (Count)
board.cache_hierarchy.l1dcaches1.LoadLockedReq.accesses::total         2445                       # number of LoadLockedReq accesses(hits+misses) (Count)
board.cache_hierarchy.l1dcaches1.LoadLockedReq.missRate::processor.cores1.core.data     0.337423                       # miss rate for LoadLockedReq accesses (Ratio)
board.cache_hierarchy.l1dcaches1.LoadLockedReq.missRate::total     0.337423                       # miss rate for LoadLockedReq accesses (Ratio)
board.cache_hierarchy.l1dcaches1.LoadLockedReq.avgMissLatency::processor.cores1.core.data 32209.575758                       # average LoadLockedReq miss latency ((Tick/Count))
board.cache_hierarchy.l1dcaches1.LoadLockedReq.avgMissLatency::total 32209.575758                       # average LoadLockedReq miss latency ((Tick/Count))
board.cache_hierarchy.l1dcaches1.LoadLockedReq.mshrHits::processor.cores1.core.data          669                       # number of LoadLockedReq MSHR hits (Count)
board.cache_hierarchy.l1dcaches1.LoadLockedReq.mshrHits::total          669                       # number of LoadLockedReq MSHR hits (Count)
board.cache_hierarchy.l1dcaches1.LoadLockedReq.mshrMisses::processor.cores1.core.data          156                       # number of LoadLockedReq MSHR misses (Count)
board.cache_hierarchy.l1dcaches1.LoadLockedReq.mshrMisses::total          156                       # number of LoadLockedReq MSHR misses (Count)
board.cache_hierarchy.l1dcaches1.LoadLockedReq.mshrMissLatency::processor.cores1.core.data      4932400                       # number of LoadLockedReq MSHR miss ticks (Tick)
board.cache_hierarchy.l1dcaches1.LoadLockedReq.mshrMissLatency::total      4932400                       # number of LoadLockedReq MSHR miss ticks (Tick)
board.cache_hierarchy.l1dcaches1.LoadLockedReq.mshrMissRate::processor.cores1.core.data     0.063804                       # mshr miss rate for LoadLockedReq accesses (Ratio)
board.cache_hierarchy.l1dcaches1.LoadLockedReq.mshrMissRate::total     0.063804                       # mshr miss rate for LoadLockedReq accesses (Ratio)
board.cache_hierarchy.l1dcaches1.LoadLockedReq.avgMshrMissLatency::processor.cores1.core.data 31617.948718                       # average LoadLockedReq mshr miss latency ((Tick/Count))
board.cache_hierarchy.l1dcaches1.LoadLockedReq.avgMshrMissLatency::total 31617.948718                       # average LoadLockedReq mshr miss latency ((Tick/Count))
board.cache_hierarchy.l1dcaches1.ReadReq.hits::processor.cores1.core.data      6674718                       # number of ReadReq hits (Count)
board.cache_hierarchy.l1dcaches1.ReadReq.hits::total      6674718                       # number of ReadReq hits (Count)
board.cache_hierarchy.l1dcaches1.ReadReq.misses::processor.cores1.core.data        71292                       # number of ReadReq misses (Count)
board.cache_hierarchy.l1dcaches1.ReadReq.misses::total        71292                       # number of ReadReq misses (Count)
board.cache_hierarchy.l1dcaches1.ReadReq.missLatency::processor.cores1.core.data   1347950100                       # number of ReadReq miss ticks (Tick)
board.cache_hierarchy.l1dcaches1.ReadReq.missLatency::total   1347950100                       # number of ReadReq miss ticks (Tick)
board.cache_hierarchy.l1dcaches1.ReadReq.accesses::processor.cores1.core.data      6746010                       # number of ReadReq accesses(hits+misses) (Count)
board.cache_hierarchy.l1dcaches1.ReadReq.accesses::total      6746010                       # number of ReadReq accesses(hits+misses) (Count)
board.cache_hierarchy.l1dcaches1.ReadReq.missRate::processor.cores1.core.data     0.010568                       # miss rate for ReadReq accesses (Ratio)
board.cache_hierarchy.l1dcaches1.ReadReq.missRate::total     0.010568                       # miss rate for ReadReq accesses (Ratio)
board.cache_hierarchy.l1dcaches1.ReadReq.avgMissLatency::processor.cores1.core.data 18907.452449                       # average ReadReq miss latency ((Tick/Count))
board.cache_hierarchy.l1dcaches1.ReadReq.avgMissLatency::total 18907.452449                       # average ReadReq miss latency ((Tick/Count))
board.cache_hierarchy.l1dcaches1.ReadReq.mshrHits::processor.cores1.core.data        37494                       # number of ReadReq MSHR hits (Count)
board.cache_hierarchy.l1dcaches1.ReadReq.mshrHits::total        37494                       # number of ReadReq MSHR hits (Count)
board.cache_hierarchy.l1dcaches1.ReadReq.mshrMisses::processor.cores1.core.data        33798                       # number of ReadReq MSHR misses (Count)
board.cache_hierarchy.l1dcaches1.ReadReq.mshrMisses::total        33798                       # number of ReadReq MSHR misses (Count)
board.cache_hierarchy.l1dcaches1.ReadReq.mshrMissLatency::processor.cores1.core.data    664994400                       # number of ReadReq MSHR miss ticks (Tick)
board.cache_hierarchy.l1dcaches1.ReadReq.mshrMissLatency::total    664994400                       # number of ReadReq MSHR miss ticks (Tick)
board.cache_hierarchy.l1dcaches1.ReadReq.mshrMissRate::processor.cores1.core.data     0.005010                       # mshr miss rate for ReadReq accesses (Ratio)
board.cache_hierarchy.l1dcaches1.ReadReq.mshrMissRate::total     0.005010                       # mshr miss rate for ReadReq accesses (Ratio)
board.cache_hierarchy.l1dcaches1.ReadReq.avgMshrMissLatency::processor.cores1.core.data 19675.554767                       # average ReadReq mshr miss latency ((Tick/Count))
board.cache_hierarchy.l1dcaches1.ReadReq.avgMshrMissLatency::total 19675.554767                       # average ReadReq mshr miss latency ((Tick/Count))
board.cache_hierarchy.l1dcaches1.StoreCondFailReq.missLatency::processor.cores1.core.data       138900                       # number of StoreCondFailReq miss ticks (Tick)
board.cache_hierarchy.l1dcaches1.StoreCondFailReq.missLatency::total       138900                       # number of StoreCondFailReq miss ticks (Tick)
board.cache_hierarchy.l1dcaches1.StoreCondFailReq.avgMissLatency::processor.cores1.core.data          inf                       # average StoreCondFailReq miss latency ((Tick/Count))
board.cache_hierarchy.l1dcaches1.StoreCondFailReq.avgMissLatency::total          inf                       # average StoreCondFailReq miss latency ((Tick/Count))
board.cache_hierarchy.l1dcaches1.StoreCondFailReq.mshrMissLatency::processor.cores1.core.data       133700                       # number of StoreCondFailReq MSHR miss ticks (Tick)
board.cache_hierarchy.l1dcaches1.StoreCondFailReq.mshrMissLatency::total       133700                       # number of StoreCondFailReq MSHR miss ticks (Tick)
board.cache_hierarchy.l1dcaches1.StoreCondFailReq.avgMshrMissLatency::processor.cores1.core.data          inf                       # average StoreCondFailReq mshr miss latency ((Tick/Count))
board.cache_hierarchy.l1dcaches1.StoreCondFailReq.avgMshrMissLatency::total          inf                       # average StoreCondFailReq mshr miss latency ((Tick/Count))
board.cache_hierarchy.l1dcaches1.StoreCondReq.hits::processor.cores1.core.data          957                       # number of StoreCondReq hits (Count)
board.cache_hierarchy.l1dcaches1.StoreCondReq.hits::total          957                       # number of StoreCondReq hits (Count)
board.cache_hierarchy.l1dcaches1.StoreCondReq.misses::processor.cores1.core.data          759                       # number of StoreCondReq misses (Count)
board.cache_hierarchy.l1dcaches1.StoreCondReq.misses::total          759                       # number of StoreCondReq misses (Count)
board.cache_hierarchy.l1dcaches1.StoreCondReq.missLatency::processor.cores1.core.data     25822900                       # number of StoreCondReq miss ticks (Tick)
board.cache_hierarchy.l1dcaches1.StoreCondReq.missLatency::total     25822900                       # number of StoreCondReq miss ticks (Tick)
board.cache_hierarchy.l1dcaches1.StoreCondReq.accesses::processor.cores1.core.data         1716                       # number of StoreCondReq accesses(hits+misses) (Count)
board.cache_hierarchy.l1dcaches1.StoreCondReq.accesses::total         1716                       # number of StoreCondReq accesses(hits+misses) (Count)
board.cache_hierarchy.l1dcaches1.StoreCondReq.missRate::processor.cores1.core.data     0.442308                       # miss rate for StoreCondReq accesses (Ratio)
board.cache_hierarchy.l1dcaches1.StoreCondReq.missRate::total     0.442308                       # miss rate for StoreCondReq accesses (Ratio)
board.cache_hierarchy.l1dcaches1.StoreCondReq.avgMissLatency::processor.cores1.core.data 34022.266140                       # average StoreCondReq miss latency ((Tick/Count))
board.cache_hierarchy.l1dcaches1.StoreCondReq.avgMissLatency::total 34022.266140                       # average StoreCondReq miss latency ((Tick/Count))
board.cache_hierarchy.l1dcaches1.StoreCondReq.mshrMisses::processor.cores1.core.data          759                       # number of StoreCondReq MSHR misses (Count)
board.cache_hierarchy.l1dcaches1.StoreCondReq.mshrMisses::total          759                       # number of StoreCondReq MSHR misses (Count)
board.cache_hierarchy.l1dcaches1.StoreCondReq.mshrMissLatency::processor.cores1.core.data     24399500                       # number of StoreCondReq MSHR miss ticks (Tick)
board.cache_hierarchy.l1dcaches1.StoreCondReq.mshrMissLatency::total     24399500                       # number of StoreCondReq MSHR miss ticks (Tick)
board.cache_hierarchy.l1dcaches1.StoreCondReq.mshrMissRate::processor.cores1.core.data     0.442308                       # mshr miss rate for StoreCondReq accesses (Ratio)
board.cache_hierarchy.l1dcaches1.StoreCondReq.mshrMissRate::total     0.442308                       # mshr miss rate for StoreCondReq accesses (Ratio)
board.cache_hierarchy.l1dcaches1.StoreCondReq.avgMshrMissLatency::processor.cores1.core.data 32146.903821                       # average StoreCondReq mshr miss latency ((Tick/Count))
board.cache_hierarchy.l1dcaches1.StoreCondReq.avgMshrMissLatency::total 32146.903821                       # average StoreCondReq mshr miss latency ((Tick/Count))
board.cache_hierarchy.l1dcaches1.SwapReq.hits::processor.cores1.core.data        17142                       # number of SwapReq hits (Count)
board.cache_hierarchy.l1dcaches1.SwapReq.hits::total        17142                       # number of SwapReq hits (Count)
board.cache_hierarchy.l1dcaches1.SwapReq.misses::processor.cores1.core.data        16913                       # number of SwapReq misses (Count)
board.cache_hierarchy.l1dcaches1.SwapReq.misses::total        16913                       # number of SwapReq misses (Count)
board.cache_hierarchy.l1dcaches1.SwapReq.missLatency::processor.cores1.core.data    582790600                       # number of SwapReq miss ticks (Tick)
board.cache_hierarchy.l1dcaches1.SwapReq.missLatency::total    582790600                       # number of SwapReq miss ticks (Tick)
board.cache_hierarchy.l1dcaches1.SwapReq.accesses::processor.cores1.core.data        34055                       # number of SwapReq accesses(hits+misses) (Count)
board.cache_hierarchy.l1dcaches1.SwapReq.accesses::total        34055                       # number of SwapReq accesses(hits+misses) (Count)
board.cache_hierarchy.l1dcaches1.SwapReq.missRate::processor.cores1.core.data     0.496638                       # miss rate for SwapReq accesses (Ratio)
board.cache_hierarchy.l1dcaches1.SwapReq.missRate::total     0.496638                       # miss rate for SwapReq accesses (Ratio)
board.cache_hierarchy.l1dcaches1.SwapReq.avgMissLatency::processor.cores1.core.data 34458.144622                       # average SwapReq miss latency ((Tick/Count))
board.cache_hierarchy.l1dcaches1.SwapReq.avgMissLatency::total 34458.144622                       # average SwapReq miss latency ((Tick/Count))
board.cache_hierarchy.l1dcaches1.SwapReq.mshrMisses::processor.cores1.core.data        16913                       # number of SwapReq MSHR misses (Count)
board.cache_hierarchy.l1dcaches1.SwapReq.mshrMisses::total        16913                       # number of SwapReq MSHR misses (Count)
board.cache_hierarchy.l1dcaches1.SwapReq.mshrMissLatency::processor.cores1.core.data    550709400                       # number of SwapReq MSHR miss ticks (Tick)
board.cache_hierarchy.l1dcaches1.SwapReq.mshrMissLatency::total    550709400                       # number of SwapReq MSHR miss ticks (Tick)
board.cache_hierarchy.l1dcaches1.SwapReq.mshrMissRate::processor.cores1.core.data     0.496638                       # mshr miss rate for SwapReq accesses (Ratio)
board.cache_hierarchy.l1dcaches1.SwapReq.mshrMissRate::total     0.496638                       # mshr miss rate for SwapReq accesses (Ratio)
board.cache_hierarchy.l1dcaches1.SwapReq.avgMshrMissLatency::processor.cores1.core.data 32561.307870                       # average SwapReq mshr miss latency ((Tick/Count))
board.cache_hierarchy.l1dcaches1.SwapReq.avgMshrMissLatency::total 32561.307870                       # average SwapReq mshr miss latency ((Tick/Count))
board.cache_hierarchy.l1dcaches1.WriteReq.hits::processor.cores1.core.data      1168675                       # number of WriteReq hits (Count)
board.cache_hierarchy.l1dcaches1.WriteReq.hits::total      1168675                       # number of WriteReq hits (Count)
board.cache_hierarchy.l1dcaches1.WriteReq.misses::processor.cores1.core.data        64842                       # number of WriteReq misses (Count)
board.cache_hierarchy.l1dcaches1.WriteReq.misses::total        64842                       # number of WriteReq misses (Count)
board.cache_hierarchy.l1dcaches1.WriteReq.missLatency::processor.cores1.core.data   1768283465                       # number of WriteReq miss ticks (Tick)
board.cache_hierarchy.l1dcaches1.WriteReq.missLatency::total   1768283465                       # number of WriteReq miss ticks (Tick)
board.cache_hierarchy.l1dcaches1.WriteReq.accesses::processor.cores1.core.data      1233517                       # number of WriteReq accesses(hits+misses) (Count)
board.cache_hierarchy.l1dcaches1.WriteReq.accesses::total      1233517                       # number of WriteReq accesses(hits+misses) (Count)
board.cache_hierarchy.l1dcaches1.WriteReq.missRate::processor.cores1.core.data     0.052567                       # miss rate for WriteReq accesses (Ratio)
board.cache_hierarchy.l1dcaches1.WriteReq.missRate::total     0.052567                       # miss rate for WriteReq accesses (Ratio)
board.cache_hierarchy.l1dcaches1.WriteReq.avgMissLatency::processor.cores1.core.data 27270.649656                       # average WriteReq miss latency ((Tick/Count))
board.cache_hierarchy.l1dcaches1.WriteReq.avgMissLatency::total 27270.649656                       # average WriteReq miss latency ((Tick/Count))
board.cache_hierarchy.l1dcaches1.WriteReq.mshrHits::processor.cores1.core.data        36577                       # number of WriteReq MSHR hits (Count)
board.cache_hierarchy.l1dcaches1.WriteReq.mshrHits::total        36577                       # number of WriteReq MSHR hits (Count)
board.cache_hierarchy.l1dcaches1.WriteReq.mshrMisses::processor.cores1.core.data        28265                       # number of WriteReq MSHR misses (Count)
board.cache_hierarchy.l1dcaches1.WriteReq.mshrMisses::total        28265                       # number of WriteReq MSHR misses (Count)
board.cache_hierarchy.l1dcaches1.WriteReq.mshrMissLatency::processor.cores1.core.data    874544199                       # number of WriteReq MSHR miss ticks (Tick)
board.cache_hierarchy.l1dcaches1.WriteReq.mshrMissLatency::total    874544199                       # number of WriteReq MSHR miss ticks (Tick)
board.cache_hierarchy.l1dcaches1.WriteReq.mshrMissRate::processor.cores1.core.data     0.022914                       # mshr miss rate for WriteReq accesses (Ratio)
board.cache_hierarchy.l1dcaches1.WriteReq.mshrMissRate::total     0.022914                       # mshr miss rate for WriteReq accesses (Ratio)
board.cache_hierarchy.l1dcaches1.WriteReq.avgMshrMissLatency::processor.cores1.core.data 30940.887989                       # average WriteReq mshr miss latency ((Tick/Count))
board.cache_hierarchy.l1dcaches1.WriteReq.avgMshrMissLatency::total 30940.887989                       # average WriteReq mshr miss latency ((Tick/Count))
board.cache_hierarchy.l1dcaches1.power_state.pwrStateResidencyTicks::UNDEFINED  63384404300                       # Cumulative time (in ticks) in various power states (Tick)
board.cache_hierarchy.l1dcaches1.prefetcher.demandMshrMisses        62063                       # demands not covered by prefetchs (Count)
board.cache_hierarchy.l1dcaches1.prefetcher.pfIssued        59259                       # number of hwpf issued (Count)
board.cache_hierarchy.l1dcaches1.prefetcher.pfUnused         3127                       # number of HardPF blocks evicted w/o reference (Count)
board.cache_hierarchy.l1dcaches1.prefetcher.pfUseful        31895                       # number of useful prefetch (Count)
board.cache_hierarchy.l1dcaches1.prefetcher.pfUsefulButMiss        17952                       # number of hit on prefetch but cache block is not in an usable state (Count)
board.cache_hierarchy.l1dcaches1.prefetcher.accuracy     0.538230                       # accuracy of the prefetcher (Count)
board.cache_hierarchy.l1dcaches1.prefetcher.coverage     0.339460                       # coverage brought by this prefetcher (Count)
board.cache_hierarchy.l1dcaches1.prefetcher.pfHitInCache        36105                       # number of prefetches hitting in cache (Count)
board.cache_hierarchy.l1dcaches1.prefetcher.pfHitInMSHR         5781                       # number of prefetches hitting in a MSHR (Count)
board.cache_hierarchy.l1dcaches1.prefetcher.pfHitInWB            0                       # number of prefetches hit in the Write Buffer (Count)
board.cache_hierarchy.l1dcaches1.prefetcher.pfLate        41886                       # number of late prefetches (hitting in cache, MSHR or WB) (Count)
board.cache_hierarchy.l1dcaches1.prefetcher.pfIdentified       145292                       # number of prefetch candidates identified (Count)
board.cache_hierarchy.l1dcaches1.prefetcher.pfBufferHit        64040                       # number of redundant prefetches already in prefetch queue (Count)
board.cache_hierarchy.l1dcaches1.prefetcher.pfInCache            0                       # number of redundant prefetches already in cache/mshr dropped (Count)
board.cache_hierarchy.l1dcaches1.prefetcher.pfRemovedDemand         1289                       # number of prefetches dropped due to a demand for the same address (Count)
board.cache_hierarchy.l1dcaches1.prefetcher.pfRemovedFull            0                       # number of prefetches dropped due to prefetch queue size (Count)
board.cache_hierarchy.l1dcaches1.prefetcher.pfSpanPage        11140                       # number of prefetches that crossed the page (Count)
board.cache_hierarchy.l1dcaches1.prefetcher.pfUsefulSpanPage         3446                       # number of prefetches that is useful and crossed the page (Count)
board.cache_hierarchy.l1dcaches1.prefetcher.power_state.pwrStateResidencyTicks::UNDEFINED  63384404300                       # Cumulative time (in ticks) in various power states (Tick)
board.cache_hierarchy.l1dcaches1.tags.tagsInUse   435.774945                       # Average ticks per tags in use ((Tick/Count))
board.cache_hierarchy.l1dcaches1.tags.totalRefs      7989050                       # Total number of references to valid blocks. (Count)
board.cache_hierarchy.l1dcaches1.tags.sampledRefs        88045                       # Sample count of references to valid blocks. (Count)
board.cache_hierarchy.l1dcaches1.tags.avgRefs    90.738259                       # Average number of references to valid blocks. ((Count/Count))
board.cache_hierarchy.l1dcaches1.tags.warmupTick    264260100                       # The tick when the warmup percentage was hit. (Tick)
board.cache_hierarchy.l1dcaches1.tags.occupancies::cache_hierarchy.l1dcaches1.prefetcher    95.559664                       # Average occupied blocks per tick, per requestor ((Count/Tick))
board.cache_hierarchy.l1dcaches1.tags.occupancies::processor.cores1.core.data   340.215281                       # Average occupied blocks per tick, per requestor ((Count/Tick))
board.cache_hierarchy.l1dcaches1.tags.avgOccs::cache_hierarchy.l1dcaches1.prefetcher     0.186640                       # Average percentage of cache occupancy ((Ratio/Tick))
board.cache_hierarchy.l1dcaches1.tags.avgOccs::processor.cores1.core.data     0.664483                       # Average percentage of cache occupancy ((Ratio/Tick))
board.cache_hierarchy.l1dcaches1.tags.avgOccs::total     0.851123                       # Average percentage of cache occupancy ((Ratio/Tick))
board.cache_hierarchy.l1dcaches1.tags.occupanciesTaskId::1022           24                       # Occupied blocks per task id (Count)
board.cache_hierarchy.l1dcaches1.tags.occupanciesTaskId::1024          485                       # Occupied blocks per task id (Count)
board.cache_hierarchy.l1dcaches1.tags.ageTaskId_1022::1           12                       # Occupied blocks per task id, per block age (Count)
board.cache_hierarchy.l1dcaches1.tags.ageTaskId_1022::2           11                       # Occupied blocks per task id, per block age (Count)
board.cache_hierarchy.l1dcaches1.tags.ageTaskId_1022::3            1                       # Occupied blocks per task id, per block age (Count)
board.cache_hierarchy.l1dcaches1.tags.ageTaskId_1024::1          146                       # Occupied blocks per task id, per block age (Count)
board.cache_hierarchy.l1dcaches1.tags.ageTaskId_1024::2          251                       # Occupied blocks per task id, per block age (Count)
board.cache_hierarchy.l1dcaches1.tags.ageTaskId_1024::3           88                       # Occupied blocks per task id, per block age (Count)
board.cache_hierarchy.l1dcaches1.tags.ratioOccsTaskId::1022     0.046875                       # Ratio of occupied blocks and all blocks, per task id (Ratio)
board.cache_hierarchy.l1dcaches1.tags.ratioOccsTaskId::1024     0.947266                       # Ratio of occupied blocks and all blocks, per task id (Ratio)
board.cache_hierarchy.l1dcaches1.tags.tagAccesses     64229989                       # Number of tag accesses (Count)
board.cache_hierarchy.l1dcaches1.tags.dataAccesses     64229989                       # Number of data accesses (Count)
board.cache_hierarchy.l1dcaches1.tags.power_state.pwrStateResidencyTicks::UNDEFINED  63384404300                       # Cumulative time (in ticks) in various power states (Tick)
board.cache_hierarchy.l1icaches0.demandHits::processor.cores0.core.inst      5904605                       # number of demand (read+write) hits (Count)
board.cache_hierarchy.l1icaches0.demandHits::total      5904605                       # number of demand (read+write) hits (Count)
board.cache_hierarchy.l1icaches0.overallHits::processor.cores0.core.inst      5904605                       # number of overall hits (Count)
board.cache_hierarchy.l1icaches0.overallHits::total      5904605                       # number of overall hits (Count)
board.cache_hierarchy.l1icaches0.demandMisses::processor.cores0.core.inst         8222                       # number of demand (read+write) misses (Count)
board.cache_hierarchy.l1icaches0.demandMisses::total         8222                       # number of demand (read+write) misses (Count)
board.cache_hierarchy.l1icaches0.overallMisses::processor.cores0.core.inst         8222                       # number of overall misses (Count)
board.cache_hierarchy.l1icaches0.overallMisses::total         8222                       # number of overall misses (Count)
board.cache_hierarchy.l1icaches0.demandMissLatency::processor.cores0.core.inst    260615000                       # number of demand (read+write) miss ticks (Tick)
board.cache_hierarchy.l1icaches0.demandMissLatency::total    260615000                       # number of demand (read+write) miss ticks (Tick)
board.cache_hierarchy.l1icaches0.overallMissLatency::processor.cores0.core.inst    260615000                       # number of overall miss ticks (Tick)
board.cache_hierarchy.l1icaches0.overallMissLatency::total    260615000                       # number of overall miss ticks (Tick)
[...]
board.processor.cores1.core.fetch.nisnDist::overflows            0      0.00%    100.00% # Number of instructions fetched each cycle (Total) (Count)
board.processor.cores1.core.fetch.nisnDist::min_value            0                       # Number of instructions fetched each cycle (Total) (Count)
board.processor.cores1.core.fetch.nisnDist::max_value            4                       # Number of instructions fetched each cycle (Total) (Count)
board.processor.cores1.core.fetch.nisnDist::total    148238657                       # Number of instructions fetched each cycle (Total) (Count)
board.processor.cores1.core.fetchStats0.numInsts     45791612                       # Number of instructions fetched (thread level) (Count)
board.processor.cores1.core.fetchStats0.numOps            0                       # Number of ops (including micro ops) fetched (thread level) (Count)
board.processor.cores1.core.fetchStats0.fetchRate     0.092149                       # Number of inst fetches per cycle ((Count/Cycle))
board.processor.cores1.core.fetchStats0.numBranches     13501512                       # Number of branches fetched (Count)
board.processor.cores1.core.fetchStats0.branchRate     0.027170                       # Number of branch fetches per cycle (Ratio)
board.processor.cores1.core.fetchStats0.icacheStallCycles     81662930                       # ICache total stall cycles (Cycle)
board.processor.cores1.core.fetchStats0.numFetchSuspends            0                       # Number of times Execute suspended instruction fetching (Count)
board.processor.cores1.core.iew.idleCycles            0                       # Number of cycles IEW is idle (Cycle)
board.processor.cores1.core.iew.squashCycles       865160                       # Number of cycles IEW is squashing (Cycle)
board.processor.cores1.core.iew.blockCycles      6060235                       # Number of cycles IEW is blocking (Cycle)
board.processor.cores1.core.iew.unblockCycles      1995853                       # Number of cycles IEW is unblocking (Cycle)
board.processor.cores1.core.iew.dispatchedInsts     37780531                       # Number of instructions dispatched to IQ (Count)
board.processor.cores1.core.iew.dispSquashedInsts       269918                       # Number of squashed instructions skipped by dispatch (Count)
board.processor.cores1.core.iew.dispLoadInsts      9064086                       # Number of dispatched load instructions (Count)
board.processor.cores1.core.iew.dispStoreInsts      3015116                       # Number of dispatched store instructions (Count)
board.processor.cores1.core.iew.dispNonSpecInsts        37574                       # Number of dispatched non-speculative instructions (Count)
board.processor.cores1.core.iew.iqFullEvents        17878                       # Number of times the IQ has become full, causing a stall (Count)
board.processor.cores1.core.iew.lsqFullEvents      1954789                       # Number of times the LSQ has become full, causing a stall (Count)
board.processor.cores1.core.iew.memOrderViolationEvents        10941                       # Number of memory order violations (Count)
board.processor.cores1.core.iew.predictedTakenIncorrect       349462                       # Number of branches that were predicted taken incorrectly (Count)
board.processor.cores1.core.iew.predictedNotTakenIncorrect       585443                       # Number of branches that were predicted not taken incorrectly (Count)
board.processor.cores1.core.iew.branchMispredicts       934905                       # Number of branch mispredicts detected at execute (Count)
board.processor.cores1.core.iew.instsToCommit     29338643                       # Cumulative count of insts sent to commit (Count)
board.processor.cores1.core.iew.writebackCount     29317558                       # Cumulative count of insts written-back (Count)
board.processor.cores1.core.iew.producerInst     11393648                       # Number of instructions producing a value (Count)
board.processor.cores1.core.iew.consumerInst     18513078                       # Number of instructions consuming a value (Count)
board.processor.cores1.core.iew.wbRate       0.058998                       # Insts written-back per cycle ((Count/Cycle))
board.processor.cores1.core.iew.wbFanout     0.615438                       # Average fanout of values written-back ((Count/Count))
board.processor.cores1.core.lsq0.forwLoads        56004                       # Number of loads that had data forwarded from stores (Count)
board.processor.cores1.core.lsq0.squashedLoads      4169824                       # Number of loads squashed (Count)
board.processor.cores1.core.lsq0.ignoredResponses          466                       # Number of memory responses ignored because the instruction is squashed (Count)
board.processor.cores1.core.lsq0.memOrderViolation        10941                       # Number of memory ordering violations (Count)
board.processor.cores1.core.lsq0.squashedStores      1745816                       # Number of stores squashed (Count)
board.processor.cores1.core.lsq0.rescheduledLoads         1062                       # Number of loads that were rescheduled (Count)
board.processor.cores1.core.lsq0.blockedByCache          437                       # Number of times an access to memory failed due to the cache being blocked (Count)
board.processor.cores1.core.lsq0.loadToUse::samples      4894262                       # Distribution of cycle latency between the first time a load is issued and its completion (Unspecified)
board.processor.cores1.core.lsq0.loadToUse::mean   107.127868                       # Distribution of cycle latency between the first time a load is issued and its completion (Unspecified)
board.processor.cores1.core.lsq0.loadToUse::stdev    16.509108                       # Distribution of cycle latency between the first time a load is issued and its completion (Unspecified)
board.processor.cores1.core.lsq0.loadToUse::0-9        33699      0.69%      0.69% # Distribution of cycle latency between the first time a load is issued and its completion (Unspecified)
board.processor.cores1.core.lsq0.loadToUse::10-19         2061      0.04%      0.73% # Distribution of cycle latency between the first time a load is issued and its completion (Unspecified)
board.processor.cores1.core.lsq0.loadToUse::20-29          733      0.01%      0.75% # Distribution of cycle latency between the first time a load is issued and its completion (Unspecified)
board.processor.cores1.core.lsq0.loadToUse::30-39          727      0.01%      0.76% # Distribution of cycle latency between the first time a load is issued and its completion (Unspecified)
board.processor.cores1.core.lsq0.loadToUse::40-49          264      0.01%      0.77% # Distribution of cycle latency between the first time a load is issued and its completion (Unspecified)
board.processor.cores1.core.lsq0.loadToUse::50-59          729      0.01%      0.78% # Distribution of cycle latency between the first time a load is issued and its completion (Unspecified)
board.processor.cores1.core.lsq0.loadToUse::60-69         1368      0.03%      0.81% # Distribution of cycle latency between the first time a load is issued and its completion (Unspecified)
board.processor.cores1.core.lsq0.loadToUse::70-79          662      0.01%      0.82% # Distribution of cycle latency between the first time a load is issued and its completion (Unspecified)
board.processor.cores1.core.lsq0.loadToUse::80-89          107      0.00%      0.82% # Distribution of cycle latency between the first time a load is issued and its completion (Unspecified)
board.processor.cores1.core.lsq0.loadToUse::90-99          382      0.01%      0.83% # Distribution of cycle latency between the first time a load is issued and its completion (Unspecified)
board.processor.cores1.core.lsq0.loadToUse::100-109      4493612     91.81%     92.65% # Distribution of cycle latency between the first time a load is issued and its completion (Unspecified)
board.processor.cores1.core.lsq0.loadToUse::110-119       307495      6.28%     98.93% # Distribution of cycle latency between the first time a load is issued and its completion (Unspecified)
board.processor.cores1.core.lsq0.loadToUse::120-129          913      0.02%     98.95% # Distribution of cycle latency between the first time a load is issued and its completion (Unspecified)
board.processor.cores1.core.lsq0.loadToUse::130-139          704      0.01%     98.96% # Distribution of cycle latency between the first time a load is issued and its completion (Unspecified)
board.processor.cores1.core.lsq0.loadToUse::140-149          397      0.01%     98.97% # Distribution of cycle latency between the first time a load is issued and its completion (Unspecified)
board.processor.cores1.core.lsq0.loadToUse::150-159          682      0.01%     98.98% # Distribution of cycle latency between the first time a load is issued and its completion (Unspecified)
board.processor.cores1.core.lsq0.loadToUse::160-169          415      0.01%     98.99% # Distribution of cycle latency between the first time a load is issued and its completion (Unspecified)
board.processor.cores1.core.lsq0.loadToUse::170-179        25629      0.52%     99.52% # Distribution of cycle latency between the first time a load is issued and its completion (Unspecified)
board.processor.cores1.core.lsq0.loadToUse::180-189         8606      0.18%     99.69% # Distribution of cycle latency between the first time a load is issued and its completion (Unspecified)
board.processor.cores1.core.lsq0.loadToUse::190-199          200      0.00%     99.70% # Distribution of cycle latency between the first time a load is issued and its completion (Unspecified)
board.processor.cores1.core.lsq0.loadToUse::200-209           41      0.00%     99.70% # Distribution of cycle latency between the first time a load is issued and its completion (Unspecified)
board.processor.cores1.core.lsq0.loadToUse::210-219           28      0.00%     99.70% # Distribution of cycle latency between the first time a load is issued and its completion (Unspecified)
board.processor.cores1.core.lsq0.loadToUse::220-229          259      0.01%     99.70% # Distribution of cycle latency between the first time a load is issued and its completion (Unspecified)
board.processor.cores1.core.lsq0.loadToUse::230-239         3303      0.07%     99.77% # Distribution of cycle latency between the first time a load is issued and its completion (Unspecified)
board.processor.cores1.core.lsq0.loadToUse::240-249         1087      0.02%     99.79% # Distribution of cycle latency between the first time a load is issued and its completion (Unspecified)
board.processor.cores1.core.lsq0.loadToUse::250-259           54      0.00%     99.79% # Distribution of cycle latency between the first time a load is issued and its completion (Unspecified)
board.processor.cores1.core.lsq0.loadToUse::260-269           53      0.00%     99.79% # Distribution of cycle latency between the first time a load is issued and its completion (Unspecified)
board.processor.cores1.core.lsq0.loadToUse::270-279            8      0.00%     99.79% # Distribution of cycle latency between the first time a load is issued and its completion (Unspecified)
board.processor.cores1.core.lsq0.loadToUse::280-289           11      0.00%     99.80% # Distribution of cycle latency between the first time a load is issued and its completion (Unspecified)
board.processor.cores1.core.lsq0.loadToUse::290-299          244      0.00%     99.80% # Distribution of cycle latency between the first time a load is issued and its completion (Unspecified)
board.processor.cores1.core.lsq0.loadToUse::overflows         9789      0.20%    100.00% # Distribution of cycle latency between the first time a load is issued and its completion (Unspecified)
board.processor.cores1.core.lsq0.loadToUse::min_value            2                       # Distribution of cycle latency between the first time a load is issued and its completion (Unspecified)
board.processor.cores1.core.lsq0.loadToUse::max_value         2506                       # Distribution of cycle latency between the first time a load is issued and its completion (Unspecified)
board.processor.cores1.core.lsq0.loadToUse::total      4894262                       # Distribution of cycle latency between the first time a load is issued and its completion (Unspecified)
board.processor.cores1.core.mmu.dtb.readHits            0                       # read hits (Count)
board.processor.cores1.core.mmu.dtb.readMisses            0                       # read misses (Count)
board.processor.cores1.core.mmu.dtb.readAccesses            0                       # read accesses (Count)
board.processor.cores1.core.mmu.dtb.writeHits            0                       # write hits (Count)
board.processor.cores1.core.mmu.dtb.writeMisses            0                       # write misses (Count)
board.processor.cores1.core.mmu.dtb.writeAccesses            0                       # write accesses (Count)
board.processor.cores1.core.mmu.dtb.hits            0                       # Total TLB (read and write) hits (Count)
board.processor.cores1.core.mmu.dtb.misses            0                       # Total TLB (read and write) misses (Count)
board.processor.cores1.core.mmu.dtb.accesses            0                       # Total TLB (read and write) accesses (Count)
board.processor.cores1.core.mmu.dtb.walker.power_state.pwrStateResidencyTicks::UNDEFINED  63384404300                       # Cumulative time (in ticks) in various power states (Tick)
board.processor.cores1.core.mmu.itb.readHits            0                       # read hits (Count)
board.processor.cores1.core.mmu.itb.readMisses            0                       # read misses (Count)
board.processor.cores1.core.mmu.itb.readAccesses            0                       # read accesses (Count)
board.processor.cores1.core.mmu.itb.writeHits            0                       # write hits (Count)
board.processor.cores1.core.mmu.itb.writeMisses            0                       # write misses (Count)
board.processor.cores1.core.mmu.itb.writeAccesses            0                       # write accesses (Count)
board.processor.cores1.core.mmu.itb.hits            0                       # Total TLB (read and write) hits (Count)
board.processor.cores1.core.mmu.itb.misses            0                       # Total TLB (read and write) misses (Count)
board.processor.cores1.core.mmu.itb.accesses            0                       # Total TLB (read and write) accesses (Count)
board.processor.cores1.core.mmu.itb.walker.power_state.pwrStateResidencyTicks::UNDEFINED  63384404300                       # Cumulative time (in ticks) in various power states (Tick)
board.processor.cores1.core.power_state.numTransitions          581                       # Number of power state transitions (Count)
board.processor.cores1.core.power_state.ticksClkGated::samples          291                       # Distribution of time spent in the clock gated state (Tick)
board.processor.cores1.core.power_state.ticksClkGated::mean 46142328.178694                       # Distribution of time spent in the clock gated state (Tick)
board.processor.cores1.core.power_state.ticksClkGated::stdev 665283462.034389                       # Distribution of time spent in the clock gated state (Tick)
board.processor.cores1.core.power_state.ticksClkGated::1000-5e+10          291    100.00%    100.00% # Distribution of time spent in the clock gated state (Tick)
board.processor.cores1.core.power_state.ticksClkGated::min_value        28900                       # Distribution of time spent in the clock gated state (Tick)
board.processor.cores1.core.power_state.ticksClkGated::max_value  11347042600                       # Distribution of time spent in the clock gated state (Tick)
board.processor.cores1.core.power_state.ticksClkGated::total          291                       # Distribution of time spent in the clock gated state (Tick)
board.processor.cores1.core.power_state.pwrStateResidencyTicks::ON  49956986800                       # Cumulative time (in ticks) in various power states (Tick)
board.processor.cores1.core.power_state.pwrStateResidencyTicks::CLK_GATED  13427417500                       # Cumulative time (in ticks) in various power states (Tick)
board.processor.cores1.core.rename.squashCycles       865160                       # Number of cycles rename is squashing (Cycle)
board.processor.cores1.core.rename.idleCycles     78542569                       # Number of cycles rename is idle (Cycle)
board.processor.cores1.core.rename.blockCycles     39190429                       # Number of cycles rename is blocking (Cycle)
board.processor.cores1.core.rename.serializeStallCycles       976224                       # count of cycles rename stalled for serializing inst (Cycle)
board.processor.cores1.core.rename.runCycles     13001475                       # Number of cycles rename is running (Cycle)
board.processor.cores1.core.rename.unblockCycles     15662800                       # Number of cycles rename is unblocking (Cycle)
board.processor.cores1.core.rename.renamedInsts     38924401                       # Number of instructions processed by rename (Count)
board.processor.cores1.core.rename.ROBFullEvents      1042028                       # Number of times rename has blocked due to ROB full (Count)
board.processor.cores1.core.rename.IQFullEvents       762874                       # Number of times rename has blocked due to IQ full (Count)
board.processor.cores1.core.rename.LQFullEvents     14275505                       # Number of times rename has blocked due to LQ full (Count)
board.processor.cores1.core.rename.SQFullEvents       359407                       # Number of times rename has blocked due to SQ full (Count)
board.processor.cores1.core.rename.renamedOperands     24566034                       # Number of destination operands rename has renamed (Count)
board.processor.cores1.core.rename.lookups     51742225                       # Number of register rename lookups that rename has made (Count)
board.processor.cores1.core.rename.intLookups     51662277                       # Number of integer rename lookups (Count)
board.processor.cores1.core.rename.fpLookups           12                       # Number of floating rename lookups (Count)
board.processor.cores1.core.rename.committedMaps     12715628                       # Number of HB maps that are committed (Count)
board.processor.cores1.core.rename.undoneMaps     11850406                       # Number of HB maps that are undone due to squashing (Count)
board.processor.cores1.core.rename.serializing         3224                       # count of serializing insts renamed (Count)
board.processor.cores1.core.rename.tempSerializing         3499                       # count of temporary serializing insts renamed (Count)
board.processor.cores1.core.rename.skidInsts      2805376                       # count of insts added to the skid buffer (Count)
board.processor.cores1.core.rob.reads       179913962                       # The number of ROB reads (Count)
board.processor.cores1.core.rob.writes       80717417                       # The number of ROB writes (Count)
board.processor.cores1.core.thread_0.numInsts     19444373                       # Number of Instructions committed (Count)
board.processor.cores1.core.thread_0.numOps     19479097                       # Number of Ops committed (Count)
board.processor.cores1.core.thread_0.numMemRefs            0                       # Number of Memory References (Count)
board.workload.inst.arm                             0                       # number of arm instructions executed (Count)
board.workload.inst.quiesce                         0                       # number of quiesce instructions executed (Count)

---------- End Simulation Statistics   ----------
